26

O      15.32       3.58       4.83
O      21.45       6.96       2.60
H      19.50       5.11       7.02
H      16.04       5.02       2.90
H      17.74       6.12       1.45
H      21.59       4.69       4.80
H      21.19       6.25       5.57
H      22.12       3.25       6.72
H      21.11       3.39       8.18
H      21.36       1.81       7.42
H      19.08       2.67       6.83
H      20.09       2.58       5.38
C      19.70       4.58       6.08
C      16.35       4.05       5.41
C      18.69       4.89       4.97
C      17.38       4.70       4.56
C      20.37       6.61       2.01
C      17.06       5.16       3.26
C      19.97       3.10       6.35
C      18.01       5.78       2.44
C      21.21       2.88       7.22
C      19.34       5.97       2.88
C      19.64       5.51       4.16
C      20.77       5.32       5.16
O      20.10       6.73       0.77
O      16.59       4.02       6.67
