34

C      21.77       9.74       9.65
C      22.63       8.76      10.42
C      23.27       9.28      11.72
C      23.20       8.30      12.85
C      21.98       8.20      16.20
C      21.08       9.39      16.25
C      20.98      10.07      17.47
C      20.12      11.16      17.57
C      19.42      10.91      15.41
C      20.28       9.83      15.19
C      23.64       6.88      12.58
C      25.15       6.70      12.35
C      26.01       6.70      13.60
N      22.71       8.75      13.96
N      22.66       7.91      15.03
N      19.34      11.59      16.56
H      23.35       8.32       9.73
H      21.91       7.95      10.66
H      22.77      10.20      12.04
H      24.32       9.54      11.51
H      23.31       7.12      15.10
H      21.57       9.75      18.33
H      20.04      11.72      18.51
H      18.77      11.26      14.60
H      20.30       9.34      14.22
H      23.30       6.19      13.36
H      23.14       6.56      11.65
H      25.54       7.45      11.66
H      25.34       5.74      11.85
O      21.34      10.79      10.24
O      21.50       9.39       8.46
O      22.12       7.44      17.17
O      27.26       6.62      13.42
O      25.41       6.76      14.73
