17

O      18.57       5.85       8.78
C      18.29       8.26       6.90
O      14.93       0.90       7.57
O      17.96       9.09       5.98
H      14.58       4.05       4.94
C      17.74       5.87       7.71
C      15.27       4.06       5.78
C      17.62       6.97       6.85
C      15.38       2.98       6.64
C      16.13       5.11       6.16
C      16.89       4.81       7.31
H      18.48       4.99       9.23
S      16.47       6.69       5.56
S      16.54       3.24       7.92
O      13.75       1.56       5.73
O      19.12       8.47       7.84
C      14.63       1.72       6.64
