16

C      25.52      17.77      12.08
O      24.41      18.16      15.53
C      25.41      17.76      13.46
C      28.71      16.07      12.32
C      27.51      16.69      12.74
C      26.72      17.16      11.66
O      23.35      18.86      13.63
C      28.82      16.09      10.94
C      24.31      18.30      14.26
S      26.76      17.00      14.26
S      27.47      16.85      10.15
H      24.76      18.21      11.44
H      29.47      15.64      12.96
O      29.82      15.69       8.87
C      29.92      15.55      10.14
O      30.88      15.00      10.78
