60

O       2.20       3.55       0.23
O       3.82       1.97       0.02
O      13.55      13.93       0.40
O      12.04      15.62       0.34
O       2.07      13.81       0.23
O       3.76      15.33       0.30
H      10.37       8.72      -0.66
H       5.51       8.66      -0.41
C      12.57       3.26      -0.44
C       3.41       3.16       0.09
C      12.37      14.39       0.38
C       3.28      14.16       0.20
C       8.65       7.47      -0.99
C       7.25       7.46      -0.75
C       6.60       8.68      -0.54
C       7.23       9.92      -0.44
C       8.65       9.91      -0.43
C       9.29       8.70      -0.70
C       4.98      12.55       1.15
C       4.28      13.04       0.04
C       4.48      12.43      -1.21
C       5.47      11.45      -1.37
C       6.30      11.08      -0.30
C       6.02      11.63       0.97
C      10.35      13.33      -0.75
C      11.28      13.32       0.31
C      11.27      12.21       1.17
C      10.37      11.14       0.97
C       9.51      11.10      -0.14
C       9.57      12.20      -1.02
C       4.30       5.13      -1.20
C       4.42       4.27      -0.10
C       5.49       4.45       0.80
C       6.40       5.51       0.60
C       6.33       6.31      -0.55
C       5.27       6.10      -1.45
C      10.16       3.99      -0.81
C      11.54       4.28      -0.84
C      11.89       5.53      -1.43
C      10.92       6.51      -1.67
C       9.53       6.32      -1.32
C       9.21       4.93      -1.27
Br       6.98      11.00       2.47
Br       4.33      12.99       2.87
Br       5.62      10.58      -3.05
Br       3.29      12.86      -2.63
Br       8.66      12.07      -2.68
Br      10.17      14.84      -1.88
Br      10.36       9.69       2.20
Br      12.46      12.13       2.65
Br       5.28       7.03      -3.10
Br       2.82       4.97      -2.37
Br       7.75       5.85       1.89
Br       5.67       3.31       2.29
Br       7.69       4.23      -2.15
Br       9.41       2.39      -0.11
Br      11.35       7.99      -2.81
Br      13.66       5.94      -2.02
O      13.77       3.67      -0.27
O      12.21       2.05      -0.29
