30

O      16.39      20.49       7.21
O      15.10      19.34       8.68
H      17.36      19.07       5.47
H      18.39      17.84       3.51
H      14.23      17.24       7.77
H      14.39      11.82       3.67
H      13.39      13.02       5.65
O      17.07      11.27       0.83
O      15.08      10.57       1.66
H      17.60      13.60       1.44
C      15.79      18.26       6.70
C      15.92      14.86       4.16
F      18.63      15.84       1.89
F      13.18      15.00       7.30
C      16.69      18.22       5.63
C      16.76      17.10       4.78
C      17.70      17.02       3.70
C      14.07      14.94       6.27
C      14.92      17.19       6.93
C      14.94      16.07       6.09
C      15.76      19.45       7.60
C      15.08      12.65       3.53
C      15.02      13.77       4.38
C      17.72      15.91       2.91
C      14.09      13.84       5.47
C      15.87      16.00       5.01
C      16.01      12.60       2.49
C      16.90      13.65       2.27
C      16.86      14.79       3.09
C      16.05      11.39       1.60
