42

H       0.14      10.58      10.62
H       1.92       4.19      13.39
H      -3.81       4.68      15.52
H      -2.37       6.32      14.39
H      -1.34       9.95      11.87
H      -2.11       7.01      12.60
H       2.46       6.62      10.93
H       1.61       3.64      11.73
H       2.92       4.79      12.05
H       0.23       3.08      13.18
H      -1.53       9.47      10.18
H      -2.59       8.79      11.43
H       2.73       7.45       9.13
H       4.14       9.19       8.10
C      -2.58       2.98      15.06
C      -2.89       4.36      15.02
C      -2.10       5.27      14.35
C      -3.59       2.05      15.57
C       1.66      11.19       9.30
C       0.98      10.21      10.04
C       1.36       8.86      10.06
C       0.70       7.85      10.93
C      -0.62       7.96      11.45
C      -1.08       6.92      12.26
C      -0.34       5.79      12.65
C       0.97       5.67      12.11
C       1.43       6.71      11.29
C       1.90       4.52      12.34
C      -1.00       4.83      13.57
C      -0.62       3.49      13.71
C      -1.32       2.57      14.52
C      -1.56       9.10      11.21
C       2.46       8.50       9.24
C       3.23       9.46       8.63
C       2.91      10.84       8.70
C       3.91      11.84       8.29
O       1.11      12.42       9.21
O      -4.77       2.44      15.84
O      -3.28       0.79      15.67
O       5.10      11.49       7.99
O       3.57      13.09       8.31
O      -0.77       1.36      14.73
