18

H      10.93      -2.39      10.18
H      10.93       1.77      11.25
H      10.93       0.62       7.11
C      10.93      -2.17       7.59
C      10.93      -0.59      12.36
C      10.93       2.75       8.60
O      10.93      -1.81       6.31
O      10.93      -1.87      12.69
O      10.93       3.68       9.55
C      10.93      -1.00       8.55
C      10.93      -0.34      10.87
C      10.93       1.34       9.13
C      10.93      -1.34       9.91
C      10.93       1.01      10.48
C      10.93       0.33       8.16
O      10.93      -3.29       8.08
O      10.93       0.40      13.08
O      10.93       2.88       7.38
