25

O      13.65      10.46      14.82
O      12.41      11.45      26.10
O      11.40      10.27      14.94
O      14.61      10.95      25.93
H      10.65      10.82      19.69
H      10.48      10.63      17.21
H      14.78      10.53      17.05
H      11.26      11.69      23.99
H      10.97      11.59      21.53
H      15.06      10.30      21.11
H      15.34      10.43      23.60
C      12.62      10.58      16.94
C      13.31      11.06      23.95
C      12.55      10.43      15.45
C      11.56      10.78      19.08
C      11.45      10.66      17.71
C      13.84      10.61      17.62
C      13.46      11.16      25.44
C      12.83      10.81      19.68
C      13.00      10.91      21.15
C      12.08      11.38      23.35
C      11.93      11.30      21.97
C      14.23      10.59      21.75
C      14.38      10.67      23.13
N      13.96      10.73      18.94
