22

O       4.64       4.55      10.13
O       4.55      10.24      14.21
O       4.14       5.87       8.35
H       4.99      10.15      10.45
H       3.00       8.71      14.59
H       2.01       6.62      15.39
H       2.04       4.57      13.95
H       3.06       4.65      11.72
H       4.98       8.12       8.99
O       4.30      11.50      12.34
C       4.34      10.39      12.97
C       3.02       7.83      13.95
C       2.46       6.65      14.40
C       2.48       5.50      13.59
C       3.05       5.55      12.34
C       3.63       6.75      11.83
C       3.62       7.93      12.67
C       4.16       9.15      12.14
C       4.61       9.20      10.83
C       4.60       8.06      10.02
C       4.17       6.84      10.51
C       4.32       5.66       9.60
