30

H       3.73       0.09      26.71
H       6.73       0.08      26.05
O       5.75       0.03      19.40
O       3.50       0.04      19.61
C       4.69       0.04      20.10
O       4.71       0.10      33.36
C       5.77       0.09      32.66
O       6.96       0.09      33.15
F       3.17       0.10      31.37
F       2.81       0.10      28.79
F       7.92       0.08      30.67
F       7.52       0.08      28.08
F       2.94       0.06      24.68
F       2.54       0.04      22.09
C       5.58       0.09      31.18
C       6.64       0.08      30.25
C       6.43       0.09      28.88
C       5.14       0.09      28.31
C       4.08       0.10      29.24
C       4.28       0.10      30.62
C       4.80       0.09      26.90
C       5.66       0.08      25.86
C       6.38       0.07      23.52
C       5.32       0.07      24.45
C       4.03       0.06      23.88
C       3.82       0.05      22.50
C       4.88       0.05      21.58
C       6.18       0.06      22.14
F       7.65       0.08      23.97
F       7.29       0.07      21.39
