36

H      -0.60      14.10       4.31
H      -1.66      15.68       5.95
H      -5.47      14.82       4.10
H      -4.27      13.32       2.52
H      -3.88      17.93      12.71
H      -5.19      17.71      10.61
H      -1.44      17.57       8.46
H      -0.27      17.90      10.64
N      -2.39      13.66       3.36
N      -3.54      16.61       7.20
N      -5.44      17.77       8.05
N      -5.61      16.54       6.01
N      -2.03      17.91      11.76
N     -10.33      18.08       7.00
H      -8.01      16.38       5.22
H     -10.49      16.84       5.35
H     -10.02      19.25       8.68
H      -7.52      18.87       8.70
C      -1.68      14.31       4.29
C      -2.26      15.17       5.20
C      -3.65      15.38       5.15
C      -4.39      14.71       4.16
C      -3.72      13.87       3.28
C      -4.31      16.23       6.16
C      -4.16      17.35       8.13
C      -6.12      17.30       6.99
C      -3.37      17.87      11.75
C      -4.10      17.75      10.58
C      -3.41      17.63       9.37
C      -2.01      17.67       9.38
C      -1.36      17.84      10.59
C      -9.79      17.29       6.06
C      -8.42      17.04       5.99
C      -7.58      17.61       6.95
C      -8.15      18.43       7.93
C      -9.52      18.64       7.92
