42

C       1.57      11.78      11.50
C       2.22      13.14      11.62
C       2.68      13.42      13.05
C      -1.18      12.15       8.13
C      -1.89      13.48       8.12
C      -1.83      14.13       6.74
H       2.25      10.99      11.88
H       0.62      11.74      12.07
H       3.08      13.17      10.93
H       1.51      13.91      11.28
H       1.84      13.39      13.76
H       3.14      14.42      13.12
H       3.43      12.69      13.37
H      -1.65      11.46       7.41
H      -0.11      12.27       7.86
H      -2.94      13.32       8.42
H      -1.43      14.14       8.87
H      -0.79      14.31       6.42
H      -2.35      15.10       6.73
H      -2.30      13.49       5.98
Cl       1.48       3.92       9.97
Cl      -1.35       4.00       8.47
O      -1.26      11.56       9.45
O       3.44       8.07       9.28
O      -3.43       8.09       9.43
O       3.56      10.12      10.19
O      -3.45      10.22       8.71
O       1.28      11.52      10.10
H       2.31       6.56      10.37
H      -2.23       6.65       8.41
C       2.91       9.10       9.82
C      -2.85       9.16       9.07
C       1.32       6.60       9.94
C      -1.24       6.66       8.85
C       0.69       5.42       9.63
C      -0.59       5.45       9.01
C      -0.65       7.89       9.25
C       0.71       7.86       9.69
C       1.42       9.09       9.89
C      -1.35       9.14       9.20
C       0.71      10.30       9.86
C      -0.67      10.32       9.49
