12

O      12.75       6.73      11.47
O      11.89       4.66      11.91
C      13.50       3.72       3.66
C      13.37       4.02       4.84
C      13.23       4.32       6.14
C      13.10       4.56       7.34
C      12.95       4.85       8.64
C      12.81       5.11       9.83
C      13.78       3.26       2.33
C      12.48       5.54      11.16
O      13.42       2.09       2.04
O      14.42       4.09       1.57
