16

C       3.77       2.91       5.82
C       4.82       2.50       2.38
S       2.48       3.65       3.66
C       5.98       1.88       2.82
C       4.01       2.87       3.47
S       6.09       1.74       4.55
C       4.57       2.53       4.72
C       2.59       3.53       5.40
C       1.48       4.08       6.18
O       6.98       1.51       0.73
O       8.01       0.74       2.63
O       0.49       4.53       5.50
Br       4.30       2.58       7.58
O       1.60       4.07       7.45
C       7.07       1.34       2.00
H       4.61       2.66       1.33
