40

C      10.04       5.80       7.50
C      10.76       5.44       8.64
C      12.24       4.64       1.77
C      12.15       5.27       8.57
C      10.91       4.25       1.17
C      12.81       5.46       7.35
C      10.95       3.30       0.15
C       9.79       2.92      -0.53
C      12.09       5.84       6.22
C       8.55       3.48      -0.16
C      12.93       4.87       9.77
C       8.51       4.43       0.86
C      12.83       6.15       4.97
H      11.90       2.84      -0.14
C       9.68       4.83       1.54
H       7.65       3.18      -0.69
O      12.98       3.72       2.21
C       9.89       1.94      -1.64
H       7.55       4.85       1.16
O      12.54       5.89       1.74
C       9.55       5.78       2.67
O      11.02       1.79      -2.21
H       8.42       7.25       1.58
C       8.84       6.97       2.54
O       8.85       1.28      -2.00
H       8.10       8.74       3.52
C       8.67       7.82       3.64
H       9.09       8.16       5.73
O      12.34       4.52      10.84
C       9.21       7.49       4.88
H      10.67       4.53       4.05
O      14.22       4.86       9.70
C       9.97       6.32       5.02
H       8.95       5.90       7.54
O      13.66       5.31       4.48
C      10.12       5.46       3.92
H      10.25       5.26       9.59
O      12.69       7.28       4.41
C      10.69       6.00       6.27
H      13.89       5.32       7.31
