44

N       6.93       3.72      28.26
N       3.58       1.17      28.14
N      -5.18      -5.92      28.26
N      -1.94      -3.23      28.14
C       5.70       4.21      27.99
C       4.57       3.40      27.93
C       4.73       2.03      28.13
C       6.00       1.51      28.35
C       7.07       2.39      28.41
C       2.76       1.16      26.98
C       1.56       0.29      27.04
C       0.71       0.23      25.94
C       1.31      -0.51      28.18
C       2.16      -0.46      29.31
O       3.06       1.82      26.00
C       3.34       0.43      29.32
O       4.09       0.53      30.29
C       1.90      -1.26      30.42
O      -1.43      -3.87      30.29
C      -4.34      -3.69      27.93
C      -3.04      -4.15      28.13
C      -2.81      -5.51      28.35
C      -3.92      -6.36      28.41
O      -2.46      -2.57      26.00
C      -1.75      -2.43      26.98
C      -0.63      -1.46      27.04
C      -0.38      -0.64      25.94
H       5.64       5.29      27.85
H       3.59       3.83      27.76
H       6.17       0.44      28.48
H       8.09       2.03      28.59
H       0.93       0.86      25.08
C       0.20      -1.39      28.18
C      -0.04      -2.21      29.31
H       2.56      -1.24      31.28
C       0.80      -2.13      30.42
C      -1.16      -3.16      29.32
H      -4.54      -2.64      27.76
H      -6.42      -4.31      27.85
H      -1.05      -0.72      25.08
H       0.64      -2.77      31.28
H      -3.79      -7.43      28.59
H      -1.81      -5.92      28.48
C      -5.38      -4.62      27.99
