26

H       5.26       9.20       9.62
H       6.70       9.32       8.61
H       6.56      11.65       8.85
H       4.98      11.52       9.64
H       6.70      11.52       6.34
H       5.24      11.65       5.34
H       6.54       9.19       6.10
H       4.95       9.33       5.33
H       2.97       9.34       8.50
H       2.83       9.21       6.75
H       2.97      11.52       6.48
H       2.84      11.67       8.23
C       4.93      13.25       7.47
C       4.90       7.60       7.48
C       5.66       9.65       8.70
C       5.56      11.19       8.76
C       4.87      11.73       7.49
C       5.65      11.20       6.26
C       5.54       9.65       6.20
C       4.86       9.12       7.48
C       3.43       9.66       7.55
C       3.43      11.20       7.43
O       6.08      13.78       7.58
O       6.05       7.05       7.52
O       3.80       6.98       7.44
O       3.84      13.89       7.34
