24

N       8.62       9.00       4.55
C      10.25       7.47       6.23
C      10.52       7.56       4.85
H      15.64       4.08      10.94
C       9.69       8.34       4.06
H      16.88       2.74       9.17
C       8.33       8.87       5.86
H      14.27       4.16       6.26
C       9.11       8.12       6.72
H      11.39       7.06       4.43
H       9.89       8.47       2.99
H       7.46       9.40       6.21
H       8.86       8.05       7.78
C      15.34       4.08       9.89
N      14.29       4.85       9.57
C      16.02       3.36       8.91
N      15.66       3.39       7.61
C      14.59       4.14       7.30
N      12.19       6.00       6.79
C      13.89       4.87       8.27
N      12.05       6.27       9.01
C      12.73       5.69       7.99
N      11.04       6.98       8.49
C      11.15       6.79       7.15
