17

C       7.48       2.10       2.72
C       7.62       2.88       1.41
C       7.09       2.06       0.24
C       7.25       2.68      -1.15
N       7.61       4.01       4.39
H       9.22       2.81       3.80
H       8.02       2.00       4.79
H       6.41       1.92       2.94
H       7.92       1.10       2.59
H       7.09       3.84       1.47
H       8.68       3.12       1.24
H       7.61       1.08       0.23
H       6.02       1.83       0.41
H       8.29       2.97      -1.33
H       6.64       3.59      -1.25
N       6.85       1.76      -2.22
C       8.14       2.70       3.95
