17

O      24.54      -1.55      12.17
C      26.59      -3.23      10.62
C      22.78      -5.10      16.82
O      27.41      -4.10      10.16
O      21.93      -4.25      17.26
H      24.82      -6.45      15.32
O      26.30      -2.10      10.08
O      23.01      -6.27      17.29
H      23.86      -1.25      12.80
S      26.19      -5.10      12.62
C      24.53      -5.45      14.98
C      25.89      -3.55      11.87
S      23.28      -3.15      14.91
C      25.04      -4.76      13.86
C      24.46      -3.49      13.69
C      24.94      -2.80      12.56
C      23.57      -4.71      15.64
