53

C      -0.46      10.11      13.96
C      -0.11       9.56      15.18
C       6.92      18.17       8.72
C       5.86      17.33       9.33
C       5.00      16.60       8.50
C       4.03      15.76       9.04
C       3.92      15.63      10.44
C       4.77      16.39      11.27
C       5.73      17.23      10.72
C       1.74      14.26       2.52
C       1.37      13.88       3.91
C       0.43      12.87       4.16
C       0.10      12.53       5.46
C       0.69      13.20       6.55
C       1.62      14.22       6.31
C       1.95      14.55       5.00
H      -0.99      11.15      11.80
H       2.43      11.66      16.02
H       1.80      12.66      13.83
H      -1.27       9.68      13.37
H      -0.64       8.68      15.54
H       3.11      14.75      12.09
H       8.36      19.45       9.10
H       5.10      16.68       7.42
H       3.38      15.18       8.41
H       4.69      16.29      12.35
H       6.39      17.80      11.37
H      -0.51      12.13       7.79
H       1.34      13.90       0.63
H      -0.04      12.36       3.32
N       1.44      13.30      11.66
N       1.75      13.83       9.33
N       0.00      12.35      10.02
N      -0.19      11.68      12.20
N       3.03      14.79      11.08
N       0.25      12.80       7.81
H      -0.64      11.75       5.65
H       2.67      15.34       4.80
H       2.05      14.77       7.14
O       0.48       8.73      17.82
O       2.42       9.86      17.79
O       7.62      18.89       9.60
O       7.14      18.20       7.50
O       2.56      15.16       2.29
O       1.12      13.57       1.59
C       0.45      12.47      11.30
C       2.03      13.95      10.64
C       0.70      13.03       9.09
C       1.29       9.54      17.27
C       0.93      10.12      15.94
C       1.61      11.24      15.44
C       1.26      11.81      14.21
C       0.22      11.24      13.46
