13

C       7.01       9.26       4.80
C       7.34       9.13       6.24
H      10.37       8.30       8.77
C       8.47       9.00       8.09
N       6.47       8.86       7.21
H       6.05       8.76       4.60
N       8.61       9.25       6.75
H       9.19       8.68      10.06
C       9.57       8.99       9.08
H       7.80       8.81       4.20
N       7.19       8.77       8.39
H      10.03       9.99       9.16
H       6.93      10.31       4.50
