30

O      16.92       8.97      25.45
O      15.69      10.89      25.47
O      13.19       6.68      14.33
O      12.04       8.64      14.31
H      12.78       9.66      21.42
H      12.18       9.30      19.19
H      15.71      10.00      18.14
H      14.13      10.73      18.44
H      14.74      11.09      20.67
H      16.31      10.34      20.37
H      14.64       6.49      18.99
H      16.01       7.46      18.46
H      15.27       6.85      21.22
H      12.40       7.56      19.41
H      12.98       7.92      21.64
H      16.62       7.86      20.68
C      12.89       8.54      19.54
C      14.83       9.96      18.79
C      15.23      10.19      20.27
C      15.47       9.41      23.68
C      14.15       8.57      18.63
C      13.28       8.77      21.01
C      14.82       8.97      21.14
C      15.53       7.71      20.59
C      15.13       7.47      19.11
C      15.17       9.21      22.52
C      13.78       8.36      17.25
C      13.46       8.17      16.09
C      12.88       7.82      14.83
C      16.04       9.77      24.95
