50

C      -3.16       0.63      25.77
C       0.50      -0.58      23.93
C       1.05      -0.17      22.72
H      -2.59      -1.47      22.85
C      -1.97      -0.68      20.45
H      -2.09      -3.44      24.40
O       0.94       1.17      34.79
H      -2.47      -3.18      26.21
O      -0.64       0.19      36.03
H       0.60      -0.56      29.35
O      -3.10      -0.18      34.98
H       0.38      -1.94      27.29
O      -3.15      -1.15      20.57
H       0.44       3.02      29.13
O      -1.58      -0.18      19.33
H       0.12       3.29      30.95
O       0.88       0.21      20.38
H       0.40       1.42      32.49
H      -4.31      -0.12      32.71
H      -3.34       0.58      30.53
H      -2.83       2.77      29.01
H      -4.60       3.28      27.36
H      -4.82       1.91      25.28
H      -3.26       0.03      24.87
H       1.11      -0.54      24.83
H       2.08       0.19      22.66
C       0.30      -0.20      21.52
C      -1.05      -0.66      21.60
C      -1.56      -1.11      22.83
C      -0.81      -1.10      24.00
C      -1.38      -1.63      25.26
C      -2.02      -2.81      25.29
C      -1.25      -0.80      26.49
C      -2.14       0.30      26.70
C      -2.01       1.10      27.90
C      -1.00       0.77      28.85
C      -0.17      -0.31      28.62
C      -0.29      -1.09      27.45
C      -0.80       1.58      30.09
C      -0.04       2.69      30.06
C      -1.40       1.09      31.35
C      -0.64       1.09      32.52
C      -1.16       0.67      33.75
C      -2.52       0.23      33.84
C      -3.27       0.22      32.64
C      -2.73       0.61      31.43
C      -0.24       0.69      34.90
C      -2.92       2.17      28.10
C      -3.91       2.45      27.18
C      -4.03       1.68      26.01
