52

H      10.48      11.60       4.53
H       9.44       7.98       6.37
H       9.73       7.79       1.98
H       9.64       8.05      -0.49
H       9.34      12.33      -0.02
H       9.42      12.06       2.44
H       8.99      11.27      -4.30
H      10.44      12.77      -5.59
H      13.09      13.16      -2.21
H      11.64      11.64      -0.90
H      12.97      12.60      -6.56
H      14.86      16.11      -5.27
H      10.48       8.93      -3.89
H       9.34       7.14      -5.15
H       5.83       7.65      -2.69
H       6.99       9.46      -1.43
H       8.08       5.97      -6.47
H       4.29       4.54      -5.38
C      10.13      10.59       4.71
C       9.61       8.73       5.61
C       9.63       9.91       2.36
C       9.64       8.78       1.53
C       9.59       8.93       0.15
C       9.50      10.21      -0.43
C       9.45      11.33       0.42
C       9.51      11.19       1.80
C      10.24      11.30      -2.52
C       9.90      11.66      -3.83
C      10.72      12.50      -4.57
C      11.89      13.01      -3.99
C      12.19      12.74      -2.66
C      11.37      11.88      -1.92
C      13.25      13.48      -6.01
C      14.21      15.24      -5.30
C       8.81       9.31      -2.57
C       9.46       8.65      -3.62
C       8.82       7.64      -4.33
C       7.51       7.28      -3.98
C       6.85       7.93      -2.93
C       7.50       8.94      -2.23
C       7.16       5.77      -5.94
C       5.23       5.06      -5.35
N      10.07       9.99       5.90
N       9.72       9.72       3.75
N       9.39       8.52       4.32
N       9.46      10.34      -1.83
N      12.79      13.77      -4.77
N      13.41      14.90      -4.30
N      14.14      14.40      -6.37
N       6.15       5.00      -6.36
N       6.83       6.30      -4.73
N       5.59       5.84      -4.34
