25

O       1.71       6.16      11.84
O      -1.34       2.88       9.53
H      -1.01       6.04      10.24
O      -0.35       6.38       3.74
O       2.26       7.48       4.87
H       1.74       7.23      10.11
H      -1.80       3.99      11.18
H      -2.11       5.97       4.69
H       1.97       5.63       4.02
H       2.73       3.76       9.93
H       1.58       3.68      11.29
H       1.16       2.93       9.72
C      -0.42       5.38       8.24
C      -0.34       5.81       6.03
C       1.07       5.86       6.08
C       0.97       5.38       8.29
C       1.05       5.10       9.77
C      -0.60       5.17       9.72
C       1.57       6.27      10.64
C      -1.32       3.91      10.18
C      -1.01       6.07       4.73
C       1.83       6.35       4.85
C       1.67       3.77      10.20
N      -1.12       5.56       7.13
N       1.76       5.61       7.23
