24

C       6.94       2.85      21.68
C       7.26       4.20      20.96
H       7.67       2.13      22.04
H       5.63       1.61      20.15
C       5.52       3.30      25.21
C       5.73       3.45      24.01
H       8.26       4.55      20.69
C       5.01       3.05      26.53
H       6.41       5.91      22.36
O       4.18       3.91      26.98
H       4.36       5.39      20.46
H       3.77       2.97      21.82
O       7.77       3.42      15.50
O       6.56       5.35      15.31
O       5.37       1.97      27.12
C       6.29       4.03      18.49
C       6.95       4.30      15.94
C       6.48       4.12      17.29
C       4.77       3.32      21.55
C       5.91       3.61      22.62
C       5.09       4.67      20.82
C       6.12       3.91      19.89
C       5.80       2.56      20.65
C       6.23       4.96      21.85
