16

O      20.56      17.08      17.92
O      22.84      17.16      18.03
O      20.58       9.89      22.69
H      19.59      14.95      19.24
O      22.86       9.97      22.81
S      20.19      12.28      21.07
C      21.70      16.64      18.29
S      23.23      14.77      19.65
C      20.61      14.68      19.51
C      22.81      12.37      21.22
C      21.71      15.42      19.10
C      21.71      11.63      21.62
C      21.01      13.57      20.28
C      21.72      10.41      22.43
C      22.41      13.48      20.45
H      23.83      12.09      21.48
