20

C       6.31       1.49       8.45
C       5.39      -0.70       7.67
C       5.39       0.77       7.67
H       5.01      -0.92       5.54
H       3.74       1.00       6.28
H       5.03      -3.43       5.65
H       3.83       3.51       6.35
H       5.76      -3.42       9.71
H       7.00       3.48       9.00
H       5.78      -0.90       9.80
H       7.05       0.97       9.06
N       5.40      -3.49       7.68
N       5.42       3.56       7.68
C       5.17      -1.43       6.49
C       4.49       1.51       6.89
C       5.18      -2.82       6.53
C       4.53       2.90       6.92
C       5.61      -2.81       8.82
C       6.30       2.88       8.43
C       5.62      -1.42       8.85
