36

C       2.82       8.75       7.30
C       6.17       6.82       0.91
H       4.17       4.68       4.98
H       1.97       5.95       3.23
C       2.85       9.86       8.19
C       7.11       7.40       0.02
H       2.43       4.47       5.27
H       2.66       4.34       2.95
C       5.29       8.65       7.51
C       4.85       8.91       0.71
H       1.90      10.32       8.45
H       7.99       6.81      -0.24
C       4.06      10.35       8.68
C       6.93       8.68      -0.47
H       6.22       8.16       7.22
H       3.96       9.46       0.99
C       5.29       9.75       8.34
C       5.80       9.46      -0.13
H       4.04      11.20       9.37
H       7.67       9.10      -1.15
C       4.17       6.97       6.16
C       3.95       7.10       2.05
H       6.22      10.15       8.73
H       5.68      10.47      -0.52
N       3.14       6.38       5.61
N       3.96       5.91       2.60
H       5.15       6.53       5.97
H       3.08       7.73       2.24
H       2.22       6.83       5.81
H       4.80       5.34       2.40
O       1.70       8.31       6.80
O       6.35       5.63       1.41
C       3.18       5.15       4.85
C       2.87       5.33       3.36
C       4.08       8.13       6.98
C       5.00       7.60       1.23
