33

C      26.86      12.47      11.78
O      28.93       8.45      10.12
C      25.80      11.75      12.37
H      28.70      12.36      10.64
O      29.96      10.40       9.82
H      26.85      13.56      11.83
C      25.80      10.35      12.26
C      26.84       9.68      11.61
H      24.98       9.78      12.71
C      24.74      12.47      13.09
H      26.84       8.59      11.54
C      25.09      13.56      13.92
H      26.13      13.85      14.01
C      24.12      14.26      14.63
H      24.40      15.12      15.25
C      22.77      13.92      14.50
H      21.36      12.58      13.55
H      23.09      11.30      12.32
C      22.41      12.85      13.66
C      23.39      12.12      12.98
H      22.78      14.75      17.12
C      21.74      14.69      15.21
H      21.00      16.06      18.25
C      21.90      15.05      16.56
H      18.73      16.26      14.79
C      20.91      15.78      17.20
H      20.40      14.89      13.52
C      27.89      11.81      11.12
C      28.99       9.71      10.31
C      19.63      15.87      15.27
C      27.90      10.41      11.05
C      20.56      15.11      14.57
N      19.80      16.21      16.56
