62

C       9.34       6.77       0.61
C       9.23       6.77      -0.87
H      10.23       8.73       0.56
H      10.66       5.17      -1.02
C      10.82       9.21       3.17
C      12.35       9.12       3.22
C      11.09       4.96      -3.69
C      12.53       5.50      -3.76
C       9.08       4.50       3.69
C      10.35       3.64       3.75
C       7.87       8.88      -3.76
C       8.72      10.15      -3.80
C       8.17       4.52       0.87
C       6.70       4.62       1.34
C       7.43       8.56      -0.86
C       6.01       7.99      -0.98
O       8.91       7.32       5.45
O      10.49       7.36      -5.74
O      11.08       6.67       5.40
O       8.44       6.40      -5.76
H      12.78      10.04       3.65
H      12.66       8.27       3.85
H      12.77       8.98       2.22
H      10.52      10.09       2.58
H      10.44       9.37       4.19
H      13.18       4.80      -4.30
H      12.54       6.46      -4.30
H      12.94       5.66      -2.76
H      11.09       3.99      -3.16
H      10.74       4.76      -4.71
H      11.19       4.23       4.15
H      10.21       2.77       4.41
H      10.64       3.27       2.76
H       8.81       4.81       4.70
H       8.25       3.88       3.32
H       8.93      10.52      -2.78
H       9.68       9.96      -4.29
H       8.22      10.95      -4.36
H       7.67       8.56      -4.80
H       6.89       9.11      -3.33
H       6.63       4.75       2.42
H       6.21       5.48       0.88
H       6.13       3.72       1.07
H       8.20       4.52      -0.22
H       8.59       3.56       1.19
H       5.70       7.91      -2.03
H       5.97       6.98      -0.54
H       5.28       8.62      -0.45
H       7.70       8.63       0.21
H       7.45       9.59      -1.25
C       9.97       6.95       4.85
C       9.45       6.89      -5.17
C       9.94       7.89       1.20
C      10.06       5.88      -1.58
C      10.18       7.98       2.57
C      10.16       5.91      -2.97
C       9.84       6.87       3.36
C       9.40       6.87      -3.66
C       9.28       5.71       2.80
C       8.56       7.77      -2.99
C       8.98       5.67       1.42
C       8.45       7.70      -1.58
