10

N      14.59      20.21       7.85
N      12.33      20.21       7.85
O      14.56      17.48       7.84
C      13.46      19.48       7.84
H      14.86      22.33       7.86
N      13.46      18.06       7.84
H      12.06      22.33       7.86
C      14.16      21.51       7.86
C      12.76      21.51       7.86
O      12.35      17.48       7.84
