33

O       9.94      13.36       1.87
C      14.25      15.88       3.02
O      10.87      13.83      -0.08
H      13.20      14.60       0.02
H      15.11      15.82       1.04
C      13.16      15.45       3.80
H      13.11      15.73       4.85
C      12.11      14.73       3.23
C      15.32      16.72       3.59
H      11.25      14.45       3.83
C      16.00      17.67       2.80
H      15.73      17.80       1.75
C      16.99      18.48       3.33
H      17.44      19.23       2.69
H      16.97      17.29       6.52
C      17.35      18.38       4.69
C      16.67      17.44       5.48
H      15.22      15.88       5.59
C      15.67      16.63       4.95
H      17.63      19.30       7.28
C      18.44      19.18       5.27
H      19.59      20.50       8.20
C      18.46      19.54       6.62
H      21.50      20.53       4.54
N      20.62      20.54       6.41
C      19.55      20.22       7.15
H      19.59      19.36       3.43
C      10.93      13.82       1.19
C      20.60      20.25       5.09
C      12.11      14.44       1.86
C      19.54      19.59       4.49
C      13.21      14.83       1.08
C      14.26      15.53       1.66
