12

C       6.26       5.76       4.61
O       5.31       6.28       5.28
O       7.32       5.23       5.06
O       4.47       5.35      -5.06
O       6.71       5.54      -5.32
C       5.63       5.48      -4.61
C       6.13       5.78       3.17
C       6.06       5.77       1.95
C       6.00       5.74       0.61
C       5.94       5.70      -0.62
C       5.87       5.63      -1.96
C       5.79       5.56      -3.18
