17

C       0.00       2.09      15.25
H       3.08       2.48      10.55
C       0.32       2.90      14.04
H       1.83       1.55      13.29
C      -0.21       4.92      12.74
H      -1.14       4.37      14.60
N       1.17       5.05      10.66
H      -0.76       5.84      12.59
N       2.12       4.28      10.07
H       0.75       5.86      10.18
O       0.76       1.06      15.48
C       2.33       3.21      10.84
O      -0.97       2.42      15.98
C       1.27       2.47      13.11
C       0.75       4.48      11.81
C      -0.40       4.11      13.85
C       1.48       3.26      11.97
