17

H      14.00       8.49      29.30
O      18.52      11.79      27.68
S      14.63      11.23      27.58
S      17.63       8.94      29.37
C      16.12      13.26      26.46
C      16.08       6.93      30.49
C      17.24      11.36      27.81
C      15.02       8.84      29.17
C      16.14      12.03      27.26
C      16.10       8.17      29.70
C      15.43      10.00      28.47
C      16.82      10.19      28.50
O      17.21      13.91      26.35
O      14.98      13.56      25.95
O      17.22       6.44      30.81
H      19.12      11.15      28.11
O      14.93       6.46      30.79
