16

C       8.25       5.94       2.95
C      10.30       4.76       4.62
C       8.18       4.61       3.38
C      10.36       6.10       4.19
C       9.17       4.04       4.19
C       9.38       6.67       3.38
O      11.19       2.93       5.82
O      12.33       4.90       5.82
C       7.19       6.56       2.08
O       6.22       5.81       1.75
C      11.36       4.15       5.49
O       7.35       7.77       1.75
F       7.16       3.80       3.04
F      11.38       6.91       4.53
F       8.98       2.75       4.53
F       9.56       7.96       3.04
