24

C       3.42      10.32      19.50
C       8.08      10.86      12.27
C       3.81       9.98      18.21
C       7.69      11.20      13.56
C       5.26      11.90      18.21
C       6.25       9.28      13.56
H       4.61       9.56      15.75
C       4.77      10.76      17.53
H       6.89      11.62      16.02
C       6.74      10.42      14.23
H       2.70       9.72      20.05
H       8.80      11.46      11.71
H       3.39       9.10      17.74
H       8.12      12.08      14.03
N       3.92      11.40      20.13
H       5.19      13.04      20.05
N       7.59       9.78      11.64
H       6.31       8.14      11.71
H       5.98      12.57      17.74
H       5.53       8.61      14.02
C       5.21      10.35      16.21
C       6.29      10.83      15.55
C       4.82      12.18      19.49
C       6.69       9.00      12.27
