32

H      10.27       6.11       0.69
H       9.61       6.14      -1.56
H      10.34       7.73      -1.77
H       7.35       5.89      -0.77
H       7.80       6.00       1.50
H       6.90       7.50       1.67
H       8.93       9.84      -1.37
H       7.27       9.68      -0.81
H      11.03       7.69       0.48
H       9.71       9.80       0.84
H       5.55       7.27      -1.51
H       5.64       8.19      -0.15
H       8.04       9.73       1.41
C       6.99       7.86      -5.18
C      10.09       7.14       0.34
C       9.01       7.79       1.23
C      10.20       7.72       5.17
C       8.77       9.24       0.74
C       9.64       7.16      -1.14
C       7.24       6.92      -0.41
C       7.68       7.00       1.08
C       9.81       7.78       3.78
C       8.28       9.24      -0.72
C       8.24       7.79      -1.27
C       9.44       7.79       2.62
C       7.81       7.80      -2.65
C       7.42       7.80      -3.80
N       5.83       7.26      -0.53
O       7.89       8.13      -6.04
O       5.75       7.65      -5.41
O      11.46       7.74       5.41
O       9.26       7.63       6.02
