16

O      13.98      13.92      21.33
O      10.80      10.73      13.61
C      11.09      11.08      17.23
S      12.32      12.30      19.56
C      11.23      11.20      15.86
S      12.41      12.39      15.38
C      12.75      12.75      17.03
C      10.52      10.45      14.83
C      11.96      11.96      17.91
C      13.63      13.62      17.71
H      10.40      10.38      17.69
H      14.33      14.32      17.26
C      14.27      14.20      20.11
O      15.13      15.06      19.72
C      13.51      13.48      19.08
O       9.66       9.59      15.23
