26

H      16.34      10.89      21.07
H      18.00       7.15      19.30
H      19.61       8.12      20.63
H      20.25       8.51      23.01
H      17.01      11.33      18.93
H      16.24      10.93      16.59
O      15.74       9.61      14.63
O      15.97       7.37      14.93
H      17.01      11.29      23.44
O      18.41      11.08      25.40
O      20.14       9.63      25.19
H      17.23       6.77      16.95
C      16.69       8.82      16.64
C      17.20       7.76      17.40
C      17.63       7.98      18.70
C      17.54       9.26      19.28
C      16.11       8.57      15.30
C      17.05      10.32      18.50
C      16.63      10.11      17.19
C      17.20      10.38      21.49
C      17.56      10.59      22.81
C      19.39       9.01      22.57
C      19.02       8.80      21.25
C      17.93       9.48      20.68
C      18.66       9.91      23.36
C      19.08      10.22      24.75
