12

C       8.41       8.88      19.34
C       8.49       8.64      18.03
C       8.59       8.41      16.83
C       8.86       7.98      15.48
O       8.53       6.80      15.18
O       9.47       8.83      14.73
C       7.90      10.00      24.41
C       8.28       9.34      21.87
C       8.19       9.58      23.07
C       8.35       9.09      20.56
O       8.21      11.18      24.72
O       7.30       9.14      25.16
