26

O       5.53       9.47      20.29
O       7.79       9.30      20.45
C       7.28       2.86      13.79
C       6.69       7.93      18.89
C       8.40       3.47      14.37
C       8.30       4.44      15.35
C       5.57       7.35      18.28
C       5.67       6.37      17.30
H       9.22       4.86      15.74
H       4.74       5.97      16.90
C       7.94       7.47      18.44
C       8.06       6.50      17.46
H       5.15       2.84      13.81
H       4.90       4.57      15.55
C       6.03       3.30      14.26
C       5.90       4.28      15.23
C       7.04       4.88      15.81
C       6.93       5.92      16.86
F       9.66       3.13      14.00
F       4.31       7.71      18.64
H       8.82       7.91      18.90
H       9.06       6.19      17.16
C       7.32       1.79      12.74
C       6.66       8.98      19.96
O       8.46       1.38      12.33
O       6.19       1.38      12.33
