12

O      13.05       2.97      24.84
C      11.66       3.55      23.10
C      11.58       3.73      21.89
C      11.47       3.88      20.56
C      11.33       3.98      19.34
C      11.11       4.08      18.02
O      10.80       2.80      25.12
C      10.87       4.18      16.82
O       9.31       4.77      15.23
O      11.51       4.67      14.64
C      10.53       4.55      15.47
C      11.86       3.10      24.45
