26

O      16.37      20.75      23.13
O      10.98      22.57      33.11
O      11.24      24.66      32.26
H      14.78      18.37      25.88
H      13.63      19.20      27.91
H      14.03      23.25      26.45
C      15.84      19.84      23.87
C      15.05      20.33      25.04
H      15.15      22.39      24.44
H      13.15      19.93      29.67
C      14.60      19.44      26.02
C      13.96      19.91      27.16
H      12.12      20.83      31.73
C      13.74      21.29      27.36
H      11.99      24.74      29.97
C      14.16      22.17      26.34
H      12.97      23.87      27.90
C      14.81      21.70      25.20
C      13.12      21.82      28.60
C      12.88      20.98      29.71
C      12.31      21.48      30.88
C      11.98      22.84      30.98
C      12.23      23.68      29.89
C      12.79      23.18      28.72
C      11.35      23.39      32.22
O      15.93      18.59      23.69
