24

C      -1.58      -4.94      17.05
O      -6.25      -4.73      14.76
H      -1.65      -3.99      11.38
O      -2.34      -5.50      19.67
C      -0.64      -5.06      18.07
C       0.71      -4.90      17.75
H      -4.17      -3.99      11.45
O      -0.17      -5.29      20.35
H      -2.63      -5.08      17.32
C       1.07      -4.64      16.43
C      -5.74      -4.36      13.66
H      -3.97      -4.71      15.66
C      -1.12      -5.32      19.50
H       1.46      -4.97      18.54
H       2.11      -4.52      16.15
C      -2.19      -4.13      12.31
C      -3.58      -4.14      12.35
N      -1.44      -4.31      13.43
C      -4.23      -4.34      13.57
C      -1.17      -4.67      15.75
C      -3.46      -4.54      14.71
N       0.15      -4.52      15.45
C      -2.07      -4.51      14.62
O      -6.37      -4.02      12.61
