22

O      11.43       9.58       8.39
O      20.51       7.56       8.22
H      13.38      10.93       7.77
H      15.87      11.19       7.78
O      11.34       7.95       6.80
H      18.05      10.23       7.62
O      20.43       9.52       7.05
C      11.96       8.75       7.57
C      13.45       8.79       7.47
C      18.49       8.19       7.18
C      16.58       6.81       6.55
C      17.95       6.96       6.69
C      17.64       9.26       7.38
C      16.23       9.11       7.32
C      15.67       7.81       7.05
C      14.26       7.67       7.28
C      14.04      10.08       7.59
C      19.94       8.43       7.49
C      15.40      10.22       7.58
I      13.44       5.80       7.84
I      15.85       5.30       5.27
I      19.32       5.50       6.02
