26

O       1.63       6.54       0.62
O       2.73       7.70      -1.00
O       7.48       2.71      -0.97
O       6.28       1.64       0.64
H       2.81       4.61      -1.88
H       2.21       4.06      -0.31
H       3.81       2.36      -0.32
H       4.41       2.93      -1.88
H       4.76       3.28       1.82
H       6.05       4.48       1.78
H       3.18       5.01       1.82
H       4.48       6.20       1.75
H       4.65       6.34      -1.99
H       5.33       7.01      -0.52
H       6.93       5.31      -0.48
H       6.27       4.66      -1.97
C       2.60       6.72      -0.19
C       6.50       2.61      -0.17
C       3.11       4.37      -0.85
C       4.18       3.24      -0.85
C       5.48       3.74      -0.17
C       5.13       4.16       1.27
C       4.08       5.30       1.26
C       3.69       5.65      -0.19
C       4.94       6.09      -0.97
C       6.00       4.96      -0.95
