23

O      10.17       0.50       7.83
O      10.06      -1.10       6.25
C      18.45       1.42       6.16
C      17.08       1.33       6.36
C      16.43       0.09       6.21
C      17.24      -1.01       5.87
C      18.60      -0.83       5.67
C      14.98      -0.03       6.41
C      14.33       0.79       7.35
C      12.95       0.71       7.54
C      12.83      -1.01       5.84
C      14.21      -0.94       5.66
C      10.70      -0.25       6.98
C      12.19      -0.19       6.78
H      18.98       2.36       6.28
H      16.52       2.23       6.60
H      16.81      -2.00       5.77
H      19.25      -1.67       5.40
H      14.91       1.48       7.97
H      12.44       1.33       8.27
H      12.23      -1.69       5.24
H      14.70      -1.56       4.91
N      19.21       0.36       5.81
