13

H       7.13       8.01       2.39
H       8.62       8.13       4.35
O       5.84       5.24       2.30
C       6.46       7.43       3.04
H       7.28       8.01       5.54
O       4.81       7.07       1.42
O       8.58       5.24       5.63
C       5.63       6.50       2.18
C       7.96       7.43       4.88
O       9.60       7.07       6.51
H       5.80       8.13       3.58
C       8.79       6.50       5.74
O       7.21       6.65       3.96
