18

O       2.97       1.21       9.53
O       3.05       5.62      14.94
O       0.79       5.63      14.94
H       4.05       4.15      13.21
H      -0.29       2.70      11.26
C       1.86       2.53      11.15
C       1.89       4.32      13.32
C       3.10       2.94      11.72
C       0.65       3.91      12.75
C       3.09       3.83      12.79
C       0.66       3.01      11.68
H       4.09       1.88      10.52
H      -0.33       4.97      13.95
O       4.30       2.50      11.27
O      -0.54       4.35      13.20
C       1.82       1.60      10.00
O       0.71       1.23       9.53
C       1.93       5.25      14.47
