20

C       7.33      11.29       2.21
C       7.31      12.68       2.17
C       5.51      16.89       0.34
C       5.52      15.49       0.37
C       7.15      17.00       1.96
C       7.23      15.62       2.04
H       7.98      13.22       2.84
H       4.84      14.96      -0.29
H       7.77      17.66       2.57
C       5.71      11.16       0.57
H       5.11      10.50      -0.06
H       4.94      12.96      -0.26
C       5.64      12.53       0.47
C       6.45      13.34       1.29
C       6.40      14.82       1.23
H       7.94      15.19       2.74
N       6.54      10.53       1.43
N       6.30      17.64       1.12
Cl       8.39      10.50       3.29
Cl       4.43      17.68      -0.73
