14

H      -1.44       6.11       7.43
H       1.16       7.19       8.71
H       1.63       6.30      10.99
H      -1.15       5.46       9.93
C       0.01       7.37       6.35
O       0.86       8.30       6.53
O      -0.41       7.01       5.18
C      -0.51       6.67       7.54
C       0.20       6.65       8.70
C      -0.17       5.96       9.89
C       0.64       5.84      10.97
C       0.29       5.00      12.15
O      -0.93       4.59      12.23
O       1.21       4.73      12.97
