48

C       8.39      13.10      13.07
C       8.36      14.44      13.80
Br       5.31      21.51       8.07
Br       5.63      16.17       7.59
Br       5.37      24.79       8.07
Br       5.74      12.89       7.60
N       7.63      24.55       9.70
N       7.51      13.14       9.73
H       9.28      21.95      11.08
H       9.00      15.74      11.28
H       8.25      20.12       7.68
H       8.26      17.65       7.64
H       7.10      17.58      11.79
H       7.10      20.06      11.83
H      11.84      22.81      11.35
H      11.17      22.56       9.72
H      12.71      23.40       9.92
H      10.87      25.06       9.45
H      11.64      25.34      10.99
H       9.32      25.63      11.38
H       9.76      24.11      12.15
H       9.37      14.87      13.90
H       7.73      15.18      13.28
H       7.95      14.33      14.81
H       7.38      12.69      12.97
H       8.94      12.37      13.69
H       9.26      12.07      11.37
H      10.05      13.60      11.77
C       8.56      23.87      10.43
C       8.28      13.83      10.63
C       8.54      22.48      10.48
C       8.34      15.22      10.59
C       7.61      21.73       9.75
C       7.59      15.97       9.68
C       6.65      22.45       9.01
C       6.77      15.25       8.79
C       6.69      23.85       9.03
C       6.79      13.85       8.84
C       8.00      19.56       8.58
C       8.00      18.18       8.56
C       7.65      17.45       9.71
C       7.66      20.25       9.75
C       7.36      18.14      10.89
C       7.37      19.53      10.92
C       9.64      24.61      11.17
C      11.00      24.62      10.45
C      11.71      23.27      10.36
C       9.07      13.10      11.68
