26

C       5.47       7.06      10.31
H       6.37       8.97      12.00
H       4.46       5.14      11.91
O       5.67       6.00      21.00
O       5.11       8.20      20.99
H       5.83       4.95      16.28
H       4.73       9.12      16.26
H       5.85       4.99      18.78
H       4.76       9.13      18.76
H       6.31       8.96      14.49
H       4.34       5.13      14.40
O       5.21       5.96       9.71
O       5.77       8.16       9.74
C       5.37       7.09      20.41
C       5.58       5.87      16.82
C       4.99       8.22      16.81
C       5.60       5.88      18.22
C       5.01       8.23      18.20
C       5.32       7.06      18.92
C       5.29       7.04      16.10
C       5.88       8.13      13.93
C       4.81       5.96      13.88
C       5.92       8.14      12.54
C       4.86       5.97      12.49
C       5.42       7.06      11.80
C       5.32       7.04      14.62
