32

H      19.59      10.68       3.57
H      19.47      10.80       6.05
H      18.47      10.89      10.25
H      22.80      10.79      10.28
H      22.62      10.76       8.25
H      19.57      10.96       8.17
N      21.67      10.70       3.49
H      24.75      11.24       3.75
H      23.94      10.42       2.49
H      24.16      10.75       7.18
N      24.02      10.59       3.50
N      24.12      10.88       6.18
H      24.83      10.34       5.68
N      20.62      10.76      12.87
N      22.96      10.71      12.90
N      18.29      10.78      12.89
H      22.96      11.05      13.86
H      23.82      10.82      12.38
H      18.29      10.43      13.85
H      17.42      10.73      12.37
C      20.49      10.72       4.18
C      20.44      10.80       5.55
C      21.64      10.84       6.31
C      22.86      10.81       5.60
C      22.82      10.73       4.17
C      21.64      10.83       7.76
C      20.58      10.89       8.59
C      19.43      10.86      10.77
C      20.63      10.85      10.05
C      21.83      10.79      10.77
C      21.80      10.77      12.18
C      19.45      10.79      12.18
