40

C       6.07       2.75      20.63
H       4.54       2.84      18.42
H       7.77       4.82      20.44
H       8.94       8.50      17.74
H       4.79       7.51      13.50
C       7.56      11.24      15.41
C       2.33       3.31      17.03
N       8.01       9.89      15.73
N       3.49       3.45      16.13
O       7.55       9.91      12.80
O       5.29       9.77      12.66
H       8.56       9.86      16.58
O       7.18       2.46      21.18
H       6.46      11.31      15.49
H       7.84      11.55      14.40
O       4.92       2.30      20.95
H       7.99      11.93      16.13
H       3.17       3.40      15.16
H       1.92       2.29      16.93
H       1.54       4.04      16.81
H       2.63       3.44      18.07
F       8.96       6.84      19.64
F       3.63       5.44      14.24
C       6.41       9.52      13.23
C       5.23       3.68      18.46
C       6.12       3.76      19.53
C       7.07       4.78      19.60
C       7.11       5.75      18.60
C       6.21       5.70      17.49
C       5.25       4.63      17.43
C       8.07       6.81      18.61
C       8.15       7.76      17.64
C       7.24       7.74      16.53
C       6.29       6.68      16.46
C       5.39       6.60      15.35
C       4.46       5.52      15.33
C       4.35       4.54      16.29
C       7.24       8.77      15.54
C       6.36       8.64      14.43
C       5.45       7.58      14.36
