90

H      10.60      17.51      10.89
H      12.56      12.95      10.71
H      11.20      21.00      12.57
H      12.90      19.43       8.18
H      15.98      17.10       9.38
H      12.74      16.55       5.67
H      13.65      16.25      12.67
H      17.26      19.52      11.89
H      16.79      15.50      13.50
H      21.67      15.21      14.03
H      19.53      18.32      12.15
H      19.35      22.45      14.87
H      15.29      18.85      15.16
H      18.36      17.82      18.90
C      17.76      18.01      14.21
C      13.34      17.55      10.22
C      10.83      22.82      10.66
C      21.10      22.70      12.90
C       9.96      12.90      11.40
C      20.50      12.80      13.34
C      15.89      18.53      19.78
C      15.34      16.40       4.83
C      11.06      16.52      10.90
C      12.42      16.37      10.58
C      12.92      15.06      10.56
C      12.13      13.95      10.80
C      10.79      14.12      11.15
C      10.29      15.42      11.20
C      11.53      20.64      11.59
C      11.41      21.46      10.46
C      11.89      20.97       9.25
C      12.49      19.73       9.14
C      12.60      18.89      10.26
C      12.09      19.39      11.47
C      15.25      17.03       8.58
C      13.89      17.22       8.82
C      13.02      17.00       7.74
C      13.46      16.66       6.48
C      14.83      16.53       6.23
C      15.70      16.71       7.31
C      14.45      16.96      12.46
C      14.46      17.69      11.27
C      15.47      18.65      11.16
C      16.49      18.78      12.09
C      16.54      17.99      13.25
C      15.43      17.14      13.41
C      17.86      15.51      13.64
C      18.56      16.68      13.98
C      19.96      16.50      14.11
C      20.59      15.27      13.93
C      19.86      14.12      13.59
C      18.47      14.29      13.47
C      19.46      19.23      12.76
C      18.62      19.25      13.88
C      18.58      20.47      14.58
C      19.39      21.54      14.26
C      20.25      21.50      13.16
C      20.23      20.32      12.40
C      15.97      18.57      15.96
C      17.26      18.10      15.68
C      18.07      17.84      16.78
C      17.65      18.03      18.09
C      16.35      18.46      18.35
C      15.53      18.72      17.26
O       9.61      22.98      10.37
O      21.38      23.40      13.92
O      21.46      22.95      11.70
O      11.61      23.66      11.21
O       9.76      12.18      10.40
O       9.60      12.67      12.61
O      21.61      12.53      13.91
O      19.86      12.03      12.55
O      16.36      19.47      20.50
O      15.14      17.59      20.16
O      14.90      15.44       4.11
O      16.13      17.31       4.47
F       8.97      15.61      11.52
F      14.24      14.84      10.28
F      12.16      18.63      12.61
F      11.80      21.76       8.14
F      17.04      16.55       7.12
F      11.67      17.14       7.92
F      15.27      16.38      14.55
F      15.50      19.50      10.09
F      17.65      13.25      13.19
F      20.78      17.54      14.43
F      21.03      20.20      11.30
F      17.75      20.68      15.65
F      14.26      19.16      17.49
F      19.36      17.44      16.61
