33

H      31.49      17.66      12.64
H      34.40      18.82       9.69
H      34.62      21.09      10.74
H      34.40      23.26      12.09
H      33.84      25.11      13.69
C      32.17      18.42      12.24
C      32.94      18.13      11.10
C      33.82      19.08      10.58
H      29.78      20.85      12.95
H      29.64      19.25      13.71
H      29.54      20.73      14.71
C      33.94      20.34      11.16
C      31.85      22.66      15.01
C      31.56      20.24      14.05
C      32.28      19.67      12.83
C      33.16      20.64      12.28
C      33.06      21.86      13.06
C      32.13      21.65      14.11
H      31.55      18.40      15.23
C      33.38      24.13      13.79
H      31.41      19.88      16.20
C      30.04      20.27      13.84
C      31.90      19.44      15.32
C      32.81      16.80      10.41
C      32.47      23.92      14.84
C      32.14      25.05      15.77
O      31.99      15.95      10.90
O      33.52      16.63       9.37
O      31.57      24.75      16.87
O      32.45      26.22      15.37
C      33.69      23.10      12.90
H      32.99      19.42      15.50
H      31.15      22.52      15.83
