54

C       0.00      11.21       7.88
C       0.00       9.99       5.77
C       0.00      12.43       5.77
H      -1.24      12.97       9.57
H      -1.24       7.64       6.45
C      -0.00      11.21       9.36
H      -1.24      13.01       3.40
C      -0.00       8.70       5.03
H       1.24      14.77       6.45
C      -0.00      13.71       5.03
H       1.24       9.44       9.57
H       1.24       9.41       3.39
C      -0.00      11.21      12.20
C      -0.00       6.25       3.61
C      -0.00      16.17       3.61
H      -0.00      11.21      13.29
H      -0.00       5.30       3.06
C       0.00      10.00       7.17
H      -0.00      17.11       3.06
C       0.00      11.21       5.08
C       0.00      12.42       7.17
H      -0.00       9.06       7.71
H       0.00      11.21       3.99
H       0.00      13.36       7.71
O      -1.86      13.04      13.39
O      -1.86       4.30       4.59
O      -1.86      16.29       1.43
O       1.86      18.11       4.59
C      -0.68      12.20      10.08
O       1.86       9.38      13.39
C      -0.68       7.59       5.52
O       1.86       6.13       1.43
C      -0.68      13.84       3.81
C       0.68      14.83       5.52
C       0.68      10.22      10.08
C       0.68       8.57       3.81
O      -1.89      14.21      11.43
O      -1.89       5.41       6.59
O      -1.89      14.01       1.39
O       1.89      17.01       6.59
C      -1.53      13.22      12.17
O       1.89       8.21      11.43
C      -1.53       5.26       5.37
O       1.89       8.41       1.39
C      -1.53      15.14       1.88
C       1.53      17.15       5.37
C       1.53       9.19      12.17
C       1.53       7.28       1.87
C      -0.70      12.19      11.49
C      -0.70       6.38       4.81
C      -0.70      15.06       3.11
C       0.70      16.04       4.81
C       0.70      10.23      11.49
C       0.70       7.36       3.11
