16

C      18.46       9.75       3.92
C      18.35      13.32       4.18
C      18.37       9.61       5.30
O      18.39       7.28       5.49
O      18.30       8.58       7.38
C      18.45      11.10       3.50
C      18.35       8.39       6.11
S      18.29      11.15       6.11
C      18.36      11.97       4.60
S      18.52      11.92       1.99
C      18.42      13.46       2.80
O      18.37      15.80       2.63
O      18.47      14.52       0.73
C      18.42      14.69       2.00
F      18.55       8.73       3.06
F      18.26      14.34       5.05
