13

C       8.65       2.13       8.19
H       8.65       0.97       4.24
H       8.56       2.36       5.30
O       7.37       2.22       8.09
O       6.30       2.16       3.89
C       6.67       1.48       4.89
C       9.35       1.10       7.31
O       5.85       0.92       5.68
H      10.22       1.59       6.83
C       8.16       1.35       5.15
N       8.46       0.49       6.32
O       9.33       2.83       8.99
H       9.73       0.32       7.98
