13

O       8.65       2.55       4.05
H       9.54       1.78       5.78
H      10.61       2.77       4.73
O      10.09       4.24       6.79
O       8.12       4.47       5.69
H       9.76       2.16       2.33
H       9.44       0.74       3.38
O       6.72       2.05       2.41
O       7.91       0.45       1.32
C       9.22       3.91       5.92
C       9.59       2.67       5.11
C       7.76       1.38       2.18
C       9.02       1.68       2.99
