18

O       4.38      -0.45       4.64
C       3.92      -2.70       6.26
O       3.50      -5.41       5.45
O       2.29      -5.48       7.29
C       3.89      -3.81       7.09
N       3.18      -5.01       6.57
H       3.54      -2.76       5.24
C       4.41      -3.78       8.39
H       5.33      -2.54       9.87
C       4.92      -2.57       8.86
C       4.49      -4.99       9.27
O       4.69      -6.11       8.71
O       4.46       0.85       6.51
H       5.29      -0.48       8.45
C       4.42      -0.27       5.90
C       4.91      -1.43       8.07
C       4.42      -1.49       6.76
O       4.39      -4.76      10.52
