27

C       6.65       6.72      15.67
C       7.89       6.95      16.58
H       8.55       6.17      16.97
H       6.31       5.76      15.27
C       5.79       7.69      16.55
C       7.15       7.95      12.12
C       7.09       7.94      14.75
C       7.02       7.92      20.13
C       9.73       8.43      15.20
C       7.48       9.14      16.58
C       8.35       8.17      15.70
C       7.03       7.92      18.91
H       4.78       7.50      16.91
C       7.11       7.94      13.34
H       5.58       9.69      15.28
H       7.82      10.10      16.98
H      10.43       8.55      16.04
H      10.08       7.59      14.58
H       9.76       9.34      14.59
O       5.86       7.88      22.13
O       6.04       7.97      10.09
O       8.32       7.98      10.12
O       8.14       7.92      22.16
C       7.00       7.91      21.58
C       7.04       7.92      17.50
C       6.24       8.91      15.67
C       7.17       7.97      10.67
