26

H      16.07      11.78       5.35
H      14.78      12.15       8.89
H      14.48       9.60       6.57
O      16.43      14.28       6.20
O      16.15      14.35       8.42
O      17.35       7.28       7.83
O      15.10       7.41       7.69
C      16.25       7.92       7.72
C      17.82      10.02       7.52
C      17.80      11.61       7.19
C      15.50       9.96       6.39
C      15.57      10.12       8.85
C      16.33       9.47       7.61
C      16.34      12.14       7.42
C      15.55      11.48       6.26
C      15.76      11.67       8.81
C      16.30      13.72       7.34
I      18.52      12.08       5.10
I      15.81       8.98       4.45
I      13.33       9.85       8.80
I      15.95       9.01      10.74
I      16.60      12.47      10.70
I      13.59      12.27       5.75
Cl      18.76       9.14       6.29
Cl      18.70       9.72       9.05
Cl      18.92      12.50       8.20
