16

H       6.66       9.62       7.91
H       2.38      12.10       7.43
H       6.65      12.13       7.87
H       2.39       9.59       7.47
C       4.53       7.97       7.71
C       4.51      13.75       7.63
C       5.73      10.17       7.81
C       3.31      11.55       7.53
C       5.72      11.56       7.78
C       3.32      10.16       7.56
C       4.51      12.26       7.64
C       4.53       9.46       7.69
O       3.40       7.38       7.63
O       5.64      14.33       7.71
O       3.38      14.34       7.54
O       5.66       7.38       7.80
