48

O       1.25       8.24      11.10
O       3.14       7.16      10.49
O       1.21       7.14      -2.42
O       3.11       8.20      -3.04
H       2.02      12.84       1.89
H       2.00       9.10       4.00
H       2.09      12.80       6.19
H       2.92      17.17       2.18
H       3.04      14.70       2.17
O       0.90      19.35       3.41
O       2.80      19.40       4.64
H       0.93      14.62       5.94
H       1.04      11.68       0.39
H       3.19       7.22       0.13
H       3.19       8.45       2.28
H       3.17       8.44       5.69
H       1.01      10.25       9.75
H       0.93      11.56       7.65
C       2.17       7.95      10.26
C       2.15       7.98      -2.24
C       1.85      18.79       4.04
C       2.05      10.88       2.79
C       2.03      12.28       2.83
C       2.01      12.99       4.04
C       2.04      12.26       5.24
C       2.04      10.86       5.24
C       2.04      10.19       4.01
C       2.47      16.60       3.00
C       2.53      15.21       2.99
C       1.98      14.47       4.05
C       1.40      15.16       5.12
C       1.38      16.55       5.14
C       1.89      17.29       4.06
C       1.54      10.72       0.35
C       1.59      10.04      -0.87
C       2.14       8.75      -0.95
C       2.71       8.20       0.20
C       2.70       8.89       1.41
C       2.09      10.15       1.51
C       2.68       8.85       6.57
C       2.71       8.11       7.76
C       2.13       8.63       8.93
C       1.49       9.88       8.85
C       1.46      10.61       7.68
C       2.06      10.11       6.51
Cl       0.71      17.36       6.51
Cl       0.96      10.81      -2.28
Cl       3.44       6.55       7.67
