16

C      13.28       7.27       7.29
C      14.11       9.29       8.36
O      12.14       5.45       8.29
C      15.02       9.52       7.31
O      11.76       5.94       6.10
F      14.00      10.16       9.38
C      14.19       7.50       6.25
C      13.26       8.18       8.35
O      16.04      11.34       6.21
F      12.38       8.05       9.36
C      15.04       8.60       6.26
C      15.92      10.72       7.32
O      16.46      11.00       8.43
F      14.30       6.62       5.22
C      12.32       6.12       7.23
F      15.91       8.75       5.24
