19

C       4.55       9.32       7.30
H       3.61       9.82       4.79
C       4.55       9.32       2.29
O       5.16       8.90       8.35
H       7.04       8.33       6.94
H       7.04       8.33       2.65
O       5.16       8.89       1.24
O       3.41       9.89       7.28
H       9.09       7.73       3.90
O       3.41       9.89       2.31
H       9.09       7.73       5.69
H       8.34       6.39       4.80
C       4.60       9.38       4.79
C       5.25       9.09       6.00
C       5.25       9.09       3.59
C       6.53       8.52       6.00
C       6.53       8.52       3.60
C       7.18       8.20       4.80
C       8.50       7.49       4.80
