26

Cl      11.60       6.65       4.91
H       5.79       5.84       4.83
H      12.15       4.67       2.31
H      12.35       4.26       4.02
Cl       5.59       7.33       3.05
H      11.60       3.09       2.91
Cl       5.85       4.60       1.37
H       6.16       3.37       4.83
H       4.74       3.43       3.75
H       6.16       2.43       3.33
O       8.83       1.85       2.63
O       8.63       8.81       4.88
O       8.92       7.46       6.69
O       9.52       3.08       0.84
C       7.83       5.91       3.95
C       8.94       6.51       4.54
C      10.18       5.91       4.25
C      10.32       4.75       3.44
C       9.16       4.16       2.92
C       7.94       4.75       3.20
C       6.44       4.56       3.06
C       6.32       5.94       3.88
C       8.83       7.70       5.45
C       9.19       2.93       2.06
C      11.67       4.16       3.16
C       5.83       3.37       3.78
