29

C      -4.54       6.49      15.16
O      -4.80       7.42      15.98
H      -4.09       3.45      14.91
O      -9.49       6.34      14.63
O      -9.70       4.73      16.22
C      -6.16       3.49      16.09
H      -6.68       5.58      17.13
H      -6.01       2.81      16.92
O      -3.55       6.46      14.33
C      -7.27       3.31      15.01
C      -6.22       3.66      13.88
C      -5.11       3.83      14.97
C      -5.48       5.35      15.12
C      -6.59       5.18      13.98
C      -7.65       4.84      15.09
H      -7.46       4.66      11.37
H      -8.75       5.56      12.21
H      -7.80       6.35      10.94
H      -7.03       7.12      13.20
H      -5.74       6.25      12.36
H     -10.58       5.15      16.29
C      -6.73       6.12      12.82
C      -7.74       5.64      11.78
C      -9.01       5.40      15.24
H      -6.13       3.10      12.94
C      -8.20       2.16      14.98
O      -9.20       2.18      14.17
O      -7.91       1.21      15.78
C      -6.53       5.01      16.21
