14

O       5.72       1.86       7.19
O       3.47       1.99       6.85
C       4.64       1.59       6.57
O       6.33      -1.96       1.34
H       6.87       0.66       5.38
H       5.22      -0.85       3.18
O       8.59      -2.14       1.64
H       8.27      -0.60       3.66
F       3.62       0.31       4.82
C       7.42      -1.72       1.97
C       7.33      -0.89       3.19
C       6.13      -0.51       3.69
C       4.80       0.69       5.39
C       5.98       0.30       4.87
