34

H       7.50       1.56       4.05
H      10.27       0.69      10.68
H       9.20       4.55       6.96
H       8.65      -2.30       7.77
H       9.63       5.44      11.11
H       7.96      -3.21       3.66
C       8.17      -4.30       6.18
C       9.48       6.55       8.61
C       8.68      -0.55       6.47
C       9.13       2.80       8.25
C       8.31      -0.11       5.16
C       9.46       2.35       9.57
C       9.06       0.43       7.47
C       8.77       1.82       7.25
C       8.09       2.16       6.02
C       9.72       0.09       8.71
C       7.98       1.26       4.99
C       9.81       0.99       9.74
C       8.27      -2.86       5.77
C       9.44       5.10       8.99
C       8.11      -1.10       4.14
C       9.59       3.33      10.60
C       8.11      -2.45       4.43
C       9.55       4.68      10.33
C       8.56      -1.92       6.76
C       9.24       4.17       7.98
I       7.80      -0.51       2.13
I       9.87       2.72      12.62
I       6.94       3.92       5.73
I      10.86      -1.68       9.03
O       8.10      -5.18       5.27
O       9.41       7.41       9.54
O       8.16      -4.50       7.43
O       9.56       6.79       7.37
