32

C      35.14      16.11      20.00
C      35.14      16.26      18.61
C      35.14      15.12      17.81
C      35.14      13.83      18.39
C      35.14      13.71      19.80
C      35.14      14.85      20.60
C      35.14      12.68      17.57
C      35.14      11.67      16.86
C      35.14      10.52      16.05
C      35.15      10.63      14.63
C      35.15       9.50      13.83
C      35.15       8.24      14.43
C      35.15       8.09      15.82
C      35.14       9.22      16.63
H      35.14      17.25      18.16
H      35.14      14.75      21.69
H      35.15       9.60      12.75
O      35.15       5.89      14.17
H      35.15       7.10      16.28
O      35.15       7.20      12.31
O      35.15      18.46      20.27
O      35.15      17.15      22.13
H      35.14      11.81      19.71
H      35.14      14.40      16.04
H      35.14       9.94      18.40
H      35.15      12.54      14.72
C      35.15       7.01      13.57
C      35.15      17.33      20.87
O      35.14      12.49      20.41
O      35.14      15.29      16.45
O      35.14       9.06      17.98
O      35.15      11.86      14.03
