20

H      11.36       3.54      29.22
H      11.93      -1.12      27.61
N       9.37       2.78      27.70
N      13.78      -0.45      29.34
C       9.74      -0.01      26.57
C      13.58       2.44      30.23
O       9.89      -1.26      26.38
O       8.89       0.76      26.02
O      13.22       3.55      30.74
O      14.69       1.84      30.37
O       8.31       2.48      28.26
O       9.57       3.74      26.96
O      13.70      -0.85      30.50
O      14.64      -0.77      28.51
C      10.69       0.63      27.54
C      12.58       1.77      29.32
C      10.54       1.94      28.03
C      12.71       0.45      28.87
C      11.48       2.51      28.88
C      11.80      -0.10      27.98
