18

C       6.90      17.97      15.16
O       6.20      14.07      10.47
H       4.99      16.31      15.97
C       5.38      16.04      14.99
N       3.05      13.47      14.54
O       6.02      18.61      15.84
C       6.35      15.31      12.49
C       6.89      14.90      11.15
H       4.84      13.77      12.49
N       2.24      12.71      14.24
C       6.40      16.78      14.40
O       8.14      18.24      15.11
H       7.75      16.94      12.71
O       8.01      15.40      10.80
C       5.27      14.60      13.05
N       3.81      14.29      15.05
C       6.92      16.40      13.16
C       4.82      14.95      14.32
