20

O      -1.59      15.57      10.78
O     -11.27      22.98       9.15
O      -2.72      14.43       9.15
O     -10.13      24.12      10.78
H      -6.25      21.22      11.51
H      -6.61      17.33       8.42
H      -8.37      19.09       8.42
H      -4.48      19.46      11.51
C      -4.43      17.28       9.96
C      -2.55      15.40       9.96
C      -8.42      21.27       9.96
C     -10.30      23.15       9.96
C      -5.34      19.39      10.83
C      -7.52      19.17       9.09
C      -6.54      18.19       9.09
C      -6.32      20.37      10.83
C      -5.43      18.28       9.96
C      -7.42      20.27       9.96
C      -9.29      22.13       9.96
C      -3.57      16.42       9.96
