30

C      11.84      13.03      17.17
C      10.71      14.13      14.81
N      12.96      10.53      19.68
N       9.94      15.97      11.74
H      14.31      13.70      17.27
N      13.84      10.35      18.63
H       8.26      13.92      14.86
N       9.17      14.84      11.51
H       8.73      12.37      17.55
H      13.83      14.76      14.53
H      10.46      12.32      19.61
Cl      14.41      11.17      16.19
H      11.60      17.43      12.79
Cl       8.73      12.44      12.58
C      12.16      11.54      19.33
O      13.95      14.09      16.45
C      10.51      15.87      12.94
C      13.56      11.24      17.66
O       8.51      13.55      15.72
O       9.65      12.37      17.89
C       9.34      14.04      12.58
O      12.94      14.75      14.13
O      11.18      11.95      20.17
C      12.50      12.07      18.05
O      11.27      16.81      13.50
C      10.17      14.63      13.55
C      12.62      13.80      16.28
C       9.89      13.59      15.82
C      10.45      13.02      16.96
C      12.09      14.25      15.07
