15

H      11.88      12.79      13.09
H      10.27      13.60      11.35
C      11.43      12.10      12.38
C      10.54      12.55      11.41
H      11.60       8.88      11.75
C      10.41      10.28      10.60
C      11.29       9.91      11.61
C      10.01      11.62      10.50
C       9.04      12.04       9.49
H      10.03       9.54       9.90
N      11.79      10.80      12.49
N       8.42      13.25       9.49
N       7.62      13.19       8.45
N       7.74      12.01       7.83
N       8.62      11.26       8.47
