23

N       2.18       4.31       9.99
H       4.05      -3.77       7.94
H       2.53       3.77       7.94
N       3.93      -2.22       9.46
N       2.65       2.23       9.46
H       4.60      -4.00      12.11
H       1.99       4.00      12.11
N       3.29       0.00       9.47
H       4.00      -1.36      11.43
N       3.62      -1.16       7.40
N       2.96       1.16       7.40
H       2.58       1.36      11.43
C       4.13      -3.50       8.98
C       2.45       3.50       8.99
O       3.29       0.00       5.47
C       4.39      -3.55      11.15
C       2.19       3.55      11.15
C       4.10      -2.25      10.84
C       2.48       2.26      10.84
C       3.59      -1.07       8.72
C       2.99       1.07       8.71
C       3.29       0.00       6.72
N       4.40      -4.31       9.99
