22

C      20.45      13.33      10.32
C      20.60      14.25       9.30
C      19.74      16.03       7.83
C      18.85      16.94       7.35
C      19.14      17.82       6.22
C      15.95      14.82      11.20
H      17.46      15.60       9.29
O      18.17      18.53       5.79
H      21.29      12.70      10.62
O      20.33      17.82       5.72
O      16.97      13.81      11.27
H      21.56      14.34       8.79
O      19.02      12.32      11.99
H      20.72      16.00       7.33
H      17.86      17.05       7.78
H      16.36      15.79      11.52
H      15.15      14.48      11.86
H      15.56      14.90      10.17
C      19.54      15.09       8.90
C      18.30      14.96       9.58
C      18.14      14.02      10.58
C      19.22      13.18      10.99
