31

O       2.04      10.92       9.48
C       5.64      10.78       7.23
H       8.78      11.48      10.65
C       4.48      10.87       8.02
H       6.44      11.48       9.81
C       3.23      10.79       7.41
H       7.96      10.23       5.97
C       3.17      10.56       6.03
H      10.27      10.30       6.98
C       4.37      10.47       5.32
H       4.52      11.00       9.10
C       3.52       9.24       1.85
N       5.57      10.60       5.90
H       2.20      10.50       5.54
C       3.47       9.39       3.23
H       2.85       8.54       1.34
C       4.37      10.27       3.85
H       2.76       8.81       3.82
C       5.30      10.94       3.05
H       6.03      11.61       3.50
C       5.25      10.76       1.67
H       5.92      11.29       1.00
C       1.97      10.92       8.21
N       4.38       9.92       1.08
C       8.55      11.22       9.61
C       7.25      11.20       9.14
N       9.61      10.90       8.84
C       7.00      10.84       7.80
C       8.11      10.51       7.01
O       0.86      11.03       7.59
C       9.38      10.55       7.56
