13

C      11.91       5.17       9.33
H      13.16       3.53       7.66
H      11.82       3.31       6.51
O      12.25       6.31       6.41
C      12.82       5.16       6.29
O      11.66       7.18      10.62
C      11.27       6.53       9.61
O      13.76       4.94       5.48
H      11.83       4.56      10.24
C      12.30       4.03       7.18
H      12.99       5.34       9.18
N      11.32       4.50       8.16
O      10.37       6.96       8.81
