28

C      17.50      16.35       5.98
C      16.01      11.11       3.91
C      18.67      15.48       3.50
C      14.11      12.50       5.57
H      18.58      16.44       5.81
H      17.34      16.31       7.06
H      17.02      17.27       5.62
H      15.51      10.59       4.74
H      16.95      10.57       3.72
H      15.39      10.99       3.01
H      18.44      16.54       3.67
H      18.68      15.32       2.42
H      19.70      15.30       3.86
O      14.93      16.29       6.93
O      14.41      14.22       7.67
H      13.77      11.87       4.74
H      13.33      13.24       5.76
H      14.19      11.87       6.47
O      17.56      11.90       1.81
O      19.39      13.02       2.55
C      15.00      15.01       6.86
C      18.15      12.70       2.62
C      15.82      14.42       5.76
C      17.33      13.30       3.72
C      16.96      15.11       5.30
C      16.26      12.55       4.27
C      17.65      14.60       4.18
C      15.42      13.17       5.21
