20

H       7.84       7.75      12.12
H       8.08       8.92      14.34
H       2.56       8.84      12.09
C       5.67       7.21      10.74
C       4.64       8.37      12.79
C       5.73       7.93      12.04
C       6.97       8.16      12.65
C       7.12       8.80      13.88
C       6.03       9.30      14.59
C       4.80       9.04      14.00
C       3.33       9.13      14.24
C       3.15       8.33      12.87
C       6.12      10.03      15.89
O       4.51       6.96      10.26
O       6.79       6.93      10.22
O       7.27      10.28      16.36
O       4.99      10.35      16.38
F       2.87       8.48      15.36
F       2.80      10.40      14.23
F       2.65       7.03      13.05
