36

C       9.11       8.81      15.85
C      11.93      10.44      24.98
H       8.07       6.92      16.02
H      14.09      10.39      24.81
C      10.23       9.59      16.23
C      10.70       9.86      24.61
H       8.36       9.24      15.18
H      11.93      11.30      25.65
C      11.18       9.03      17.05
C      10.71       8.75      23.78
H      10.34      10.61      15.86
H       9.76      10.27      24.97
C      11.04       7.70      17.54
C      11.92       8.21      23.29
H      12.06       9.60      17.36
H       9.78       8.28      23.47
C      12.08       7.20      18.37
C      11.85       7.06      22.46
H      12.95       7.83      18.59
H      10.86       6.63      22.24
C      13.17       5.43      19.68
C      12.83       5.24      21.16
H      13.40       4.45      19.25
H      13.57       4.54      21.58
N      12.08       6.00      18.90
N      12.88       6.46      21.93
H      14.05       6.07      19.56
H      11.84       4.79      21.27
H      11.25       5.42      18.68
H      13.80       6.89      22.15
O       9.73       5.71      17.65
O      14.32       8.36      23.19
C       9.89       6.92      17.18
C      13.18       8.82      23.65
C       8.95       7.51      16.30
C      13.14       9.93      24.53
