18

O      19.78      19.02      10.38
C      20.26      16.79      13.19
C      18.51      17.49      16.51
C      18.54      18.66      14.33
O      17.57      18.29      16.86
C      19.90      16.63      14.55
H      20.91      16.06      12.72
O      19.04      16.61      17.29
C      18.93      18.82      13.02
C      18.99      17.58      15.12
H      20.95      14.88      14.78
N      20.43      15.60      15.26
H      20.12      15.46      16.22
H      17.85      19.36      14.80
C      19.78      17.86      12.44
H      18.58      19.66      12.42
C      20.14      17.95      10.99
O      20.74      16.96      10.47
