20

C      25.93       9.97      29.86
C      26.18      10.12      27.12
H      25.86       9.92      30.94
H      26.25      10.16      26.03
H      23.16       8.35      29.11
H      23.75       8.86      30.67
H      28.83      11.92      27.85
H      28.13      11.58      26.29
N      23.94       8.63      29.70
N      28.24      11.33      27.27
C      24.09       8.86      26.72
O      24.30       9.03      25.46
O      23.09       8.23      27.21
C      27.97      11.29      30.25
O      28.98      11.92      29.76
O      27.75      11.16      31.51
C      25.08       9.44      27.66
C      27.02      10.66      29.31
C      24.95       9.34      29.08
C      27.17      10.73      27.89
