16

O      -1.30      27.13      11.04
Cl      -0.82      26.78      17.37
O      -2.63      28.10      12.58
C      -1.64      27.38      12.24
Cl       0.82      25.58      11.47
C       1.64      24.98      16.60
O       2.63      24.26      16.26
Cl      -2.43      27.95      15.23
O       1.30      25.23      17.79
C       1.10      25.37      14.11
C      -0.80      26.76      13.36
C       0.80      25.59      15.48
C      -1.10      26.98      14.72
Cl       2.43      24.40      13.60
C      -0.32      26.41      15.76
C       0.32      25.94      13.07
