14

C       3.82       4.28       6.03
H       5.60       0.66       7.94
H       3.70       4.77       5.07
H       6.77       1.70       7.14
C       5.73       1.35       7.10
N       5.51       0.71       5.79
H       4.37       2.40       9.33
C       4.82       2.54       7.22
N       4.60       3.19       6.06
H       2.92       4.43       9.31
C       4.22       2.96       8.41
H       2.59       5.66       7.13
C       3.40       4.09       8.39
C       3.21       4.77       7.19
