30

C      33.02      19.06      17.91
C      34.07      19.67      17.05
C      31.03      17.92      19.53
H      31.86      20.87      17.98
H      29.70      21.08      19.23
H      34.00      17.15      17.98
H      33.11      15.18      19.23
C      28.04      16.19      21.97
C      26.98      15.58      22.84
C      30.03      17.34      20.35
H      29.20      14.38      21.90
H      31.36      14.17      20.65
H      27.05      18.10      21.90
H      27.95      20.07      20.65
O      35.05      18.92      16.71
O      33.91      20.90      16.71
O      26.00      16.33      23.17
O      27.14      14.36      23.17
C      31.92      19.83      18.31
C      30.92      19.28      19.12
C      29.78      20.04      19.55
C      33.13      17.73      18.31
C      32.16      17.13      19.12
C      32.24      15.77      19.55
C      29.14      15.42      21.57
C      30.14      15.97      20.76
C      31.28      15.21      20.33
C      27.92      17.52      21.57
C      28.90      18.12      20.76
C      28.81      19.48      20.33
