34

H       4.98       5.00       1.56
H       4.98       7.52       1.22
H       4.98       8.39      -1.12
H       4.98       6.79      -3.01
H       4.98       5.29      -4.48
H       4.98       1.00      -5.16
H       4.98       1.35      -7.09
H       4.98       1.77      -9.52
H       4.98       6.00      -8.82
H       4.98       5.62      -6.39
C       4.98       5.45       0.57
C       4.98       6.83       0.38
C       4.98       7.32      -0.92
C       4.98       6.42      -1.99
C       4.98       5.05      -1.72
C       4.98       4.00      -2.77
C       4.98       4.26      -4.14
C       4.98       3.20      -5.07
C       4.98       1.90      -4.54
C       4.98       1.71      -3.16
C       4.98       0.33      -2.54
C       4.98       3.45      -6.53
C       4.98       2.38      -7.45
C       4.98       2.61      -8.82
C       4.98       3.91      -9.32
C       4.98       4.99      -8.42
C       4.98       4.75      -7.05
C       4.98       4.15     -10.80
N       4.98       4.58      -0.45
N       4.98       2.74      -2.31
O       4.98       0.36      -1.24
O       4.98      -0.67      -3.27
O       4.98       5.33     -11.26
O       4.98       3.12     -11.56
