28

O      -2.53      25.97       8.41
O      -4.73      26.26       7.88
H      -1.51      15.77       2.90
H      -5.76      16.17       2.19
H      -1.52      23.95       7.48
H      -5.74      24.39       6.67
O      -4.76      14.10       1.33
O      -2.50      13.94       1.61
F      -5.95      18.46       3.41
F      -1.31      18.02       4.20
F      -5.95      22.13       5.38
F      -1.32      21.65       6.25
C      -3.63      25.61       7.87
C      -3.63      14.52       1.75
C      -3.63      15.83       2.47
C      -2.43      16.33       3.01
C      -2.46      17.54       3.67
C      -3.63      18.30       3.84
C      -4.81      17.76       3.27
C      -4.83      16.55       2.60
C      -3.63      19.53       4.52
C      -3.63      20.60       5.10
C      -3.63      21.83       5.78
C      -2.46      22.37       6.37
C      -2.44      23.57       7.04
C      -3.63      24.30       7.15
C      -4.82      23.82       6.59
C      -4.80      22.61       5.93
