33

H      16.61       3.65      15.47
C      13.72       3.05      13.75
O      17.87       1.70      16.30
C      13.71       1.65      13.85
H      14.77       4.86      14.30
C      14.75       0.98      14.50
H      12.90       1.08      13.40
C      12.66       3.77      13.02
H      14.75      -0.11      14.57
C      13.00       4.86      12.20
H      14.05       5.15      12.11
C      12.03       5.56      11.49
H      12.32       6.42      10.87
H       9.27       3.88      12.58
C      10.68       5.21      11.62
H      11.00       2.60      13.80
C      10.33       4.15      12.47
C      11.30       3.42      13.14
H      10.70       6.04       9.01
C       9.65       5.98      10.91
H       8.92       7.35       7.87
O      16.85      -0.25      15.99
C       9.81       6.34       9.56
H       6.64       7.56      11.32
C       8.82       7.08       8.92
H       8.31       6.18      12.60
C      16.90       1.01      15.81
C       7.54       7.17      10.85
C      15.81       1.70      15.07
C       8.47       6.41      11.55
C      15.80       3.10      14.99
N       7.71       7.50       9.55
C      14.78       3.77      14.34
