20

C      12.87      15.47       3.05
C      14.94      14.37       4.80
C      14.00      16.20       3.45
C      13.80      13.63       4.41
C      14.98      15.67       4.28
C      12.81      14.16       3.57
C      14.69      17.54       3.32
C      15.81      16.94       4.27
H      15.02      17.80       2.31
H      14.13      18.39       3.73
H      15.91      17.44       5.25
H      16.80      16.85       3.82
C      16.00      13.84       5.70
C      11.83      16.06       2.16
O      15.89      12.64       6.09
O      16.95      14.65       5.99
O      10.83      15.33       1.86
O      12.04      17.26       1.77
F      13.60      12.36       4.82
F      11.78      13.33       3.28
