18

N      22.22       9.95       7.82
H      22.94      10.43       8.34
C      19.00      12.20       6.32
O      21.20       7.92       6.44
C      20.24      10.09       6.39
H      18.45      10.41       5.25
H      22.35       8.99       7.51
C      19.86      14.22       7.53
O      18.80      14.83       7.18
C      19.96      12.77       7.18
C      20.33       8.70       5.90
O      20.86      14.74       8.14
C      21.18      10.66       7.30
C      21.03      12.02       7.65
H      18.16      12.79       5.98
C      19.16      10.88       5.93
H      21.75      12.49       8.31
O      19.53       8.35       4.97
