16

C       3.15       3.82       6.97
O       6.07       1.00       8.45
H       6.77       3.63       5.68
O       2.82       6.51       4.55
H       2.13       3.88       7.33
O       7.43       1.67       6.81
C       6.32       1.75       7.42
O       1.46       5.84       6.19
C       2.58       5.76       5.58
O       3.41       1.92       8.33
C       5.31       2.74       6.98
O       5.48       5.59       4.68
C       3.58       4.77       6.03
C       3.97       2.79       7.46
C       4.93       4.72       5.55
C       5.74       3.69       6.04
