28

C      13.49       8.43       7.17
C      13.29       7.22       7.82
O      13.10       4.97       9.50
O      11.08       5.70      10.24
O      13.45      10.84       5.70
O      12.81      16.32      10.40
O      11.60      16.95       8.61
H      10.96       8.19      10.11
H      11.37      10.39       9.00
C      12.39       7.14       8.89
H      13.55      11.59       9.48
C      11.68       8.28       9.30
H      13.29      13.87      10.45
H      11.68      15.30       6.73
C      11.92       9.50       8.68
C      12.83       9.59       7.61
H      11.99      13.03       5.72
C      13.04      10.86       6.87
H      14.17       8.50       6.31
H      13.82       6.32       7.50
C      12.78      12.16       7.54
C      13.12      12.40       8.88
C      12.18       5.84       9.59
C      12.98      13.67       9.42
C      12.47      14.72       8.65
C      12.28      16.09       9.22
C      12.10      14.48       7.31
C      12.27      13.22       6.76
