13

O       5.05       2.92       3.96
H       3.91       2.17       2.39
H       3.06       3.39       4.35
O       6.96       2.43       2.30
C       4.75       1.88       3.04
H       3.84       2.30       5.54
C       4.39       4.36       5.74
O       5.88       0.63       1.42
O       5.59       4.81       5.63
C       4.00       3.17       4.88
C       5.97       1.62       2.18
O       3.49       4.78       6.51
H       4.47       0.96       3.58
