28

C      15.20      16.32      12.87
C       9.92      11.79      16.11
H      12.94      15.45      10.65
H      12.89      10.83      17.10
H      15.81      16.37      13.77
H       9.11      12.30      15.59
H      12.13      15.97      14.74
C      14.12      15.46      12.57
H      13.36      11.34      13.74
C      11.30      11.91      15.92
H      12.24      13.17      11.88
C      12.46      13.38      12.94
H      13.24      14.11      16.60
C      13.03      13.92      15.54
C      12.39      14.93      14.53
H      10.33      13.95      13.84
H      15.15      13.36      14.63
C      13.10      12.38      13.95
C      13.44      14.50      13.43
C      12.04      12.81      15.03
N      14.52      16.86      10.85
N      10.86      10.43      17.55
N      15.42      17.14      11.84
N       9.66      10.91      17.09
C      11.41      13.82      14.02
C      14.08      13.49      14.46
C      13.73      15.84      11.29
C      11.85      11.03      16.86
