32

C      15.34       5.33      12.10
H      16.94       8.28      14.07
C      15.12       5.47      13.47
C      16.82       5.88       7.44
H      14.48       4.77      14.00
N      17.46       6.87       8.10
H      18.92       6.99       3.44
N      17.25       7.00       9.39
H      17.38       8.03      11.61
H      14.89       4.52      11.54
N      15.72       5.16       9.32
N      15.94       5.03       8.03
H      18.50       7.34       5.87
Cl      15.70       3.29       3.16
H      15.69       4.07       5.81
O      15.81       7.83      16.14
C      15.36       6.78      15.61
O      14.58       5.93      16.19
C      16.39       6.13       9.98
C      17.98       6.55       5.33
O      18.78       6.02       1.34
C      18.20       6.36       3.97
O      17.70       4.04       1.25
C      16.63       4.53       3.93
C      16.40       4.71       5.29
C      17.07       5.71       6.00
C      17.56       5.34       3.24
C      18.01       5.13       1.84
C      15.69       6.53      14.18
C      16.51       7.45      13.51
C      16.75       7.32      12.14
C      16.16       6.26      11.43
