44

O      -7.16      12.45      12.33
C     -11.71       6.93      10.11
O      -5.63      19.01       7.51
C     -11.55       7.31      11.46
H     -11.98       7.06       7.22
O      -6.90      17.08       6.27
C     -12.50       6.86      12.40
H     -12.46       5.47       6.53
C     -13.62       6.13      12.01
H     -11.12       5.56       7.72
C     -10.50       8.21      11.88
H     -10.97       7.22       9.37
C      -9.76       9.03      11.09
H     -12.36       7.13      13.45
C      -8.85      10.02      11.66
H     -14.36       5.82      12.74
C      -8.37      11.04      10.80
H     -10.34       8.31      12.96
C      -7.62      12.19      11.14
H      -9.92       9.06      10.01
C      -7.37      13.19      10.11
H      -8.69      10.98       9.76
C      -6.69      14.32      10.41
H      -7.78      13.00       9.12
C      -6.39      15.48       9.60
H      -6.32      14.38      11.44
C      -5.66      16.52      10.19
H      -5.31      16.41      11.22
C      -5.38      17.70       9.50
H      -4.83      18.51       9.97
C      -5.83      17.87       8.19
H      -7.40      14.84       7.78
C      -6.54      16.80       7.56
H      -7.25      15.16       5.49
C      -6.83      15.64       8.26
H      -7.88      16.58       4.58
C      -7.74      16.15       5.57
H      -8.71      16.05       6.08
O     -13.07       5.75       8.44
C     -12.09       5.98       7.42
O     -14.89       5.15      10.22
C     -13.81       5.80      10.67
O      -8.58       9.92      12.92
C     -12.81       6.19       9.73
