32

S      18.03       9.29      22.39
S      19.96       7.60      19.99
H      15.35       5.60      22.40
H      19.22       4.91      21.63
O      18.59       4.31      26.76
O      16.48       8.05      15.43
H      15.52       8.03      20.90
O      15.39       6.04      15.49
H      20.47       8.36      21.93
H      18.56       9.89      20.42
H      16.79       4.28      20.32
O      20.59       6.67      19.10
O      19.65       8.94      19.53
O      20.87       7.68      21.29
C      17.59       6.33      22.62
C      18.47       6.93      20.66
O      19.84       6.22      26.84
C      18.38       5.59      21.46
O      17.02       9.70      23.32
O      19.43       9.29      22.80
O      17.86      10.17      21.09
C      16.86       6.70      18.52
C      17.94       6.15      23.98
C      16.15       6.97      15.98
C      16.24       5.98      21.88
C      17.04       5.24      20.76
C      16.59       6.76      17.34
C      18.94       5.46      26.33
C      18.32       5.90      25.11
C      16.32       7.31      21.07
C      17.12       6.58      19.91
C      17.66       7.68      21.78
