26

H       4.79       1.21       6.27
H       6.19       1.03       7.33
H       5.99      -1.28       6.95
H       4.38      -1.09       6.24
H       6.23      -1.08       9.46
H       4.83      -1.30      10.52
H       5.95       1.22       9.84
H       4.35       0.99      10.55
H       2.45       0.97       7.35
H       2.27       1.16       9.09
H       2.49      -1.14       9.45
H       2.31      -1.34       7.71
C       4.43      -2.88       8.41
C       4.33       2.77       8.41
C       5.14       0.73       7.20
C       5.01      -0.81       7.10
C       4.36      -1.36       8.39
C       5.17      -0.81       9.60
C       4.99       0.72       9.69
C       4.32       1.25       8.40
C       2.89       0.69       8.32
C       2.92      -0.85       8.48
O       5.57      -3.43       8.27
O       5.46       3.34       8.28
O       3.22       3.37       8.55
O       3.34      -3.51       8.58
