40

C       6.57       7.20       4.20
C       6.50      13.64       1.11
N      13.49       9.72       0.13
N      -0.86       9.32       1.72
H       5.69       8.52       1.34
H       7.41      12.32       3.97
H       7.35      10.57       0.33
H       5.77      10.26       4.98
N      13.43       8.51       0.76
N      -0.82      10.56       1.14
H      12.35      11.51       0.22
H       0.55       8.12       2.76
H      12.16       7.68       2.25
H       0.69      12.04       0.93
O       7.57       8.13       3.73
O       5.53      12.70       1.58
H       5.92       6.87       3.37
H       5.95       7.66       4.99
H       7.11       6.35       4.61
H       7.12      13.21       0.31
H       7.15      13.99       1.93
H       5.93      14.49       0.71
C      11.74       9.79       1.55
C       1.21      10.15       2.04
C       6.98      10.50       1.36
C       6.13      10.33       3.95
C       6.09       9.36       1.92
C       7.03      11.47       3.38
C       2.57      10.27       2.38
C      10.50      10.14       2.12
C       6.10      11.57       2.11
C       7.02       9.27       3.19
C       5.18      10.41       2.68
C       7.94      10.42       2.62
C      12.49      10.50       0.59
C       0.35       9.06       2.26
C       3.77      10.38       2.61
C       9.35      10.34       2.47
C      12.40       8.54       1.63
C       0.41      11.07       1.33
