48

H       1.69      -6.16      12.87
H       1.30      -1.87      12.84
H       2.08      -3.99       9.18
C       1.36      -3.97      18.88
C       1.69       2.27       7.99
C       2.02     -10.27       7.98
C       1.54      -4.01      13.03
C       1.69      -5.22      12.33
C       1.84      -5.22      10.94
C       1.88      -4.00      10.25
C       1.69      -2.79      10.93
C       1.49      -2.81      12.31
C       2.59      -8.84       9.99
C       2.57      -7.64      10.69
C       1.91      -6.50      10.19
C       1.30      -6.65       8.93
C       1.35      -7.85       8.22
C       1.99      -8.96       8.74
C       0.81      -5.00      15.25
C       0.78      -4.99      16.64
C       1.38      -3.97      17.37
C       2.03      -2.97      16.66
C       2.08      -2.99      15.26
C       1.46      -4.00      14.51
C       2.32      -0.36      10.68
C       2.32       0.85       9.99
C       1.69       0.98       8.74
C       1.05      -0.17       8.24
C       1.06      -1.37       8.94
C       1.69      -1.51      10.19
O       1.06     -11.07       8.22
O       0.39      -3.38      19.44
O       0.73       2.48       7.18
O       2.99     -10.46       7.19
O       2.65       3.08       8.22
O       2.32      -4.57      19.45
F       0.73      -7.92       7.02
F       3.23      -9.90      10.53
F       0.58      -5.63       8.39
F       3.22      -7.59      11.87
F       0.15      -6.00      17.29
F       0.15      -6.00      14.61
F       2.64      -1.96      17.32
F       2.79      -2.01      14.65
F       2.98      -0.40      11.86
F       2.95       1.88      10.57
F       0.40      -2.42       8.39
F       0.43      -0.15       7.05
