20

O       8.28      10.68       1.41
O      10.55      10.63       1.28
H      11.33       8.32       8.41
H      11.43       8.65       5.94
H       7.42      10.23       5.98
H       7.32       9.91       8.46
C       9.32       8.05      12.49
C       9.25       8.61      11.17
C      10.48       8.75       7.87
C      10.54       8.93       6.50
C       8.27       9.83       6.52
C       8.22       9.65       7.90
C       9.32       9.11       8.59
C       9.44       9.47       5.81
C       9.48       9.68       4.41
C       9.26       8.87       9.98
C       9.49       9.90       3.21
C       9.42      10.42       1.88
O      10.47       7.79      12.94
O       8.20       7.82      13.09
