26

O       3.38      -0.62       4.69
O      -3.47       0.67      -4.62
O       2.24      -2.58       4.64
O      -2.30       2.62      -4.59
H      -1.56      -1.62      -0.78
H       1.57       1.61       0.77
H       0.67      -2.79       2.84
H      -0.57      -2.16       0.82
H      -0.71       2.81      -2.81
H       0.58       2.15      -0.82
F      -2.95      -1.13      -2.78
F       2.92       1.15       2.80
C       2.52      -1.42       4.19
C      -2.60       1.47      -4.13
C      -1.86       1.01      -2.92
C       1.80      -0.98       2.96
C      -2.05      -0.24      -2.30
C      -1.33      -0.64      -1.18
C       2.02       0.26       2.33
C       1.33       0.64       1.18
C       0.85      -1.82       2.37
C       0.15      -1.46       1.22
C      -0.88       1.84      -2.34
C      -0.16       1.46      -1.22
C      -0.37       0.21      -0.61
C       0.38      -0.21       0.60
