13

C      10.08       4.42       5.78
C       8.49       1.67       2.24
O       8.59       0.69       1.46
O       9.41       2.97       4.01
O      10.98       4.82       6.56
H      11.39       3.52       4.33
H       9.93       0.99       3.69
H      10.70       2.38       5.54
O       8.88       4.87       5.67
H      10.56       2.15       2.48
O       7.51       2.48       2.35
C      10.48       3.26       4.90
C       9.70       1.91       3.12
