20

O       7.88       2.23       1.98
O       7.69       8.09       5.92
O       9.96       7.95       6.07
H       6.81       3.86       3.51
H      12.16       3.94       3.71
H      11.92       5.00       2.30
H      12.04       5.95       5.24
H      11.80       7.01       3.83
O      10.13       2.52       1.75
F       6.48       5.81       5.11
C       8.81       7.53       5.70
C      10.02       5.79       4.36
C       8.83       6.27       4.91
C       7.69       5.50       4.58
C       7.73       4.40       3.73
C       8.94       3.97       3.16
C      10.09       4.69       3.52
C      11.58       4.79       3.33
C      11.51       6.05       4.29
C       8.99       2.82       2.23
