18

C      15.27      15.74      10.41
N      16.65      16.76      15.04
O      16.06      17.71      15.55
O      16.94      15.69      15.59
O      20.06      18.82      13.47
H      17.53      17.09       9.77
H      15.17      15.76      13.11
H      19.18      18.13      11.37
C      19.13      18.15      14.03
O      18.99      17.94      15.27
C      18.11      17.53      13.12
O      15.50      15.88       9.16
C      16.97      16.87      13.59
C      16.26      16.37      11.35
O      14.29      15.13      10.94
C      17.38      17.04      10.85
C      16.05      16.28      12.73
C      18.29      17.61      11.73
