16

H      15.80       3.63       2.00
C      14.49       1.28       2.22
H      17.85       0.64       5.41
C      19.22       2.96       5.12
C      16.25       0.89       3.97
C      16.25       2.99       2.76
C      17.39       3.39       3.45
O      14.03       2.11       1.37
C      15.69       1.73       3.01
H      17.85       4.36       3.26
C      17.97       2.54       4.40
H      15.80      -0.08       4.15
O      19.68       2.13       5.97
O      19.68       4.10       4.82
O      14.03       0.13       2.51
C      17.39       1.29       4.67
