19

H      19.13      14.64      19.48
C      24.11      12.02      21.42
H      24.34      10.97      21.21
H      23.73      12.11      22.45
H      25.07      12.56      21.35
S      21.86      13.27      18.23
S      21.12      13.48      22.33
C      24.33      12.07      18.24
O      25.36      11.64      18.86
O      24.17      12.12      16.97
C      18.67      14.77      22.31
O      17.73      15.35      21.68
O      18.77      14.62      23.58
C      23.11      12.56      20.45
C      19.89      14.21      20.13
C      23.22      12.57      19.06
C      19.77      14.22      21.51
C      21.10      13.61      19.73
C      21.88      13.16      20.82
