47

C      13.13      -1.80       9.04
H       8.76       6.38       9.18
H      11.18       7.07      12.69
C      10.27       9.47      11.19
H      12.55       5.22      13.63
H      13.47       2.94      13.41
H      13.73       0.86      12.10
H      11.39       0.25       8.54
H       8.64       4.14       8.17
C      11.61       9.62      11.85
C      15.90       0.06      10.63
C       9.41       1.63       7.61
H       7.55       8.28       9.79
H      12.14      -2.10       8.70
H      11.54       9.48      12.94
H      12.32       8.87      11.47
H      12.03      10.62      11.66
N      14.22      -2.52       8.72
N       9.59      10.57      10.79
N       8.42      10.16      10.18
H      15.50       1.08      10.69
H      16.15      -0.27      11.65
H       8.59       2.11       7.06
H      10.21       1.39       6.89
H       9.04       0.67       8.01
N      15.31      -1.93       9.28
H      16.83       0.09      10.06
C       8.40       8.82      10.21
C      14.91      -0.84       9.97
C       9.55       8.31      10.84
C      13.50      -0.71       9.85
C       9.45       6.02       9.95
C       9.94       6.91      10.92
C      10.82       6.41      11.89
C      11.28       5.09      11.86
C      10.83       4.21      10.82
C       9.87       4.68       9.88
C      12.23       4.57      12.81
C      12.73       3.31      12.69
C      12.36       2.45      11.61
C      11.36       2.91      10.69
C      10.95       2.06       9.61
C       9.91       2.52       8.71
C       9.41       3.79       8.86
C      12.98       1.21      11.39
C      12.68       0.43      10.25
C      11.63       0.85       9.41
