16

O      10.31      13.99       6.35
O       5.79      11.08       1.87
C       9.80      10.92       4.49
O       6.86       9.07       2.03
F       8.14      14.15       4.84
F       9.19       9.02       3.26
O      11.59      12.12       6.14
C      10.57      12.83       5.88
C       9.58      12.23       4.94
C       7.74      10.94       3.20
C       8.42      12.88       4.48
C       8.90      10.29       3.65
C       7.52      12.25       3.63
C       6.72      10.31       2.29
H       6.64      12.79       3.28
H      10.70      10.39       4.82
