30

C       2.54      10.12       7.24
C       3.82       9.60       7.04
H       1.88      14.29      10.58
C       4.01       8.55       6.15
H       3.64      12.59      11.04
H       3.92      10.65       9.52
C       1.74       8.49       5.64
C       1.48       9.54       6.51
H       0.71      12.12       7.05
C       1.16      13.30       8.81
H       1.19      16.03       9.28
C       2.01      13.44       9.91
N       2.98       8.00       5.46
H      -0.68      17.60       8.83
C       3.00      12.49      10.16
H      -3.05      14.61       7.23
N      -1.92      16.16       8.01
C       3.16      11.40       9.31
H      -1.32      12.86       7.70
H       4.68      10.02       7.54
C       2.33      11.25       8.18
H       4.99       8.11       5.96
C       1.33      12.20       7.95
C       0.09      14.29       8.54
H       0.93       8.01       5.09
H       0.46       9.89       6.63
C       0.26      15.64       8.87
C      -0.76      16.54       8.59
C      -2.09      14.86       7.70
C      -1.12      13.90       7.95
