14

C      12.07       9.09       1.97
H      11.32       4.58      -0.30
C      12.13       5.03      -0.87
H      13.43       8.71       0.30
C      12.62       8.26       0.87
H      13.44       6.65      -1.15
C      12.62       6.25      -0.55
O      13.58       4.75      -2.74
C      12.13       7.04       0.55
H      11.31       6.64       1.15
O      11.17       8.54       2.74
O      12.32       3.00      -2.10
O      12.44      10.29       2.10
C      12.69       4.20      -1.97
