22

O       2.99       7.58       8.24
O       3.23       5.37       8.73
O      -5.94       5.40       8.20
O      -6.17       7.61       8.65
F      -1.36       3.51       8.80
F      -1.59       9.46       7.96
H      -3.59       4.66       8.56
H      -4.14       8.90       8.06
H       0.63       8.31       8.15
H       1.18       4.09       8.79
C       2.54       6.42       8.47
C      -5.49       6.57       8.39
C      -3.16       5.65       8.45
C      -3.47       8.05       8.16
C      -2.11       8.21       8.13
C      -1.19       7.14       8.28
C       0.21       7.32       8.28
C       0.51       4.93       8.64
C      -0.84       4.76       8.62
C      -1.76       5.83       8.45
C      -4.00       6.75       8.32
C       1.05       6.23       8.46
