40

C       2.25       1.14       5.06
H       9.69       4.89      -2.52
C       4.31      -0.34       6.22
C       2.25      -0.25       4.97
H       6.26       5.69      -4.67
H       8.41       4.64      -0.38
C       3.28      -1.00       5.55
H       4.81       5.50      -2.64
C       3.24      -2.51       5.53
N       8.01       5.29      -3.66
H       4.59       4.90      -0.30
N       4.01       3.88       4.66
H       7.22       4.91       1.31
H       7.13       4.46       3.61
H       3.35       4.76       1.50
H       5.88       3.79       5.62
O       4.18      -3.15       6.09
H       2.23       4.11       3.62
O       2.23      -3.07       4.97
H       2.30       3.75       5.86
H       3.85       3.67       6.72
H       5.13       1.54       6.86
H       1.41       1.71       4.65
H       5.10      -0.91       6.70
H       1.41      -0.76       4.49
C       8.60       5.01      -2.48
C       6.69       5.46      -3.69
C       7.88       4.88      -1.30
C       5.89       5.36      -2.55
C       6.48       5.06      -1.32
C       5.66       4.93      -0.12
C       6.14       4.85       1.14
C       5.37       4.61       2.34
C       6.05       4.39       3.55
C       3.96       4.53       2.37
C       5.36       4.02       4.69
C       3.31       4.17       3.54
C       3.31       3.31       5.84
C       3.29       1.81       5.73
C       4.33       1.05       6.31
