18

O       2.21       6.06       4.96
O       3.86       5.73       6.38
C       3.21       8.15       7.55
C       2.32       7.41       6.87
C      -0.02       6.61       6.72
C       0.87       7.61       6.93
H       0.30       5.62       6.38
H       2.82       8.96       8.18
C       0.36       9.00       7.23
H      -0.55       9.28       6.67
N       2.84       6.31       6.00
C      -1.48       6.77       6.94
C       4.69       7.99       7.52
O      -2.24       5.98       6.30
O       5.27       8.47       6.50
O      -1.83       7.67       7.78
O       5.21       7.47       8.56
O       0.92       9.81       7.95
