16

C      23.70       8.68      13.07
C      21.85       7.53      11.33
C      22.59       9.42      12.63
C      22.95       6.78      11.76
C      21.67       8.85      11.77
C      23.88       7.36      12.63
O      24.45      10.49      14.38
O      25.68       8.57      14.37
C      24.69       9.29      14.01
H      22.47      10.44      12.99
H      23.08       5.76      11.41
H      20.81       9.41      11.42
H      24.74       6.79      12.98
C      20.85       6.90      10.40
O      21.06       5.69      10.06
O      19.87       7.63      10.03
