16

C       5.79      -3.12      14.72
C       7.17      -3.42      14.69
H       8.67      -4.96      14.53
C       7.60      -4.75      14.58
C       6.66      -5.77      14.62
H       6.98      -6.82      14.62
C       5.29      -5.47      14.65
H       5.48      -2.08      14.81
O       7.79      -1.38      15.65
H       3.79      -3.92      14.64
O       9.22      -2.30      14.15
C       4.31      -6.59      14.77
O       4.59      -7.48      15.63
O       3.27      -6.58      14.01
C       8.13      -2.29      14.85
C       4.86      -4.14      14.65
