18

H      18.48       8.78      30.35
H      19.42       8.38      28.94
O      18.51       8.52      25.06
O      12.20      11.87      29.81
O      19.77       8.15      26.95
C      17.66       9.30      28.54
C      14.36      10.78      28.31
N      18.68       8.95      29.37
C      17.68       9.17      27.14
C      14.31      10.89      29.69
C      15.57      10.20      27.89
S      16.24       9.78      26.36
S      15.74      10.30      30.48
C      18.72       8.58      26.33
C      16.43       9.89      28.95
H      13.54      11.10      27.67
C      13.18      11.40      30.48
O      13.29      11.33      31.75
