24

C       0.45       6.17      12.76
C      -1.09       6.37      12.92
C       0.32       3.70      13.16
H       0.99       7.05      13.13
H      -1.29       7.19      13.62
H       0.85       4.58      15.70
C      -1.22       3.87      12.95
H       0.70       6.28      15.29
H      -1.51       4.22      15.48
C       0.37       5.28      15.00
H      -1.64       5.98      15.54
C      -1.17       5.15      15.00
H      -1.76       3.06      13.48
N       0.90       5.02      13.63
H       1.71       5.79      11.29
H      -1.13       6.30      11.01
N      -1.67       5.15      13.60
H      -2.45       4.06      11.43
H       0.51       3.02      14.01
H       0.45       3.49      11.27
O       0.73       5.93      11.41
O      -1.69       6.69      11.71
O       0.95       3.16      12.05
O      -1.49       3.86      11.58
