20

H      13.76       9.82       9.27
H      16.71      10.66      13.66
H      15.84      12.21      13.59
H      13.98      11.23      14.98
H      14.85       9.68      15.07
Br      11.38       8.54      10.13
C      11.78       8.87      13.48
O      10.85       8.16      12.98
C      15.99      11.10      10.05
O      11.93       9.15      14.72
O      16.97      11.68      10.63
O      15.83      10.95       8.79
C      14.93      10.54      10.93
C      12.81       9.42      12.56
C      14.95      10.62      12.32
C      12.79       9.35      11.14
C      13.92      10.08      13.09
C      13.81       9.89      10.36
C      15.72      11.12      13.52
C      14.56      10.51      14.40
