24

N      -3.32       7.97      10.08
C      -1.77      10.25       9.57
C      -3.03      10.09       8.97
H       1.90      17.23       8.95
C      -3.77       8.95       9.26
H       0.66      18.12       6.91
C      -2.09       8.10      10.60
H      -1.53      14.59       6.72
C      -1.29       9.20      10.38
H      -3.43      10.87       8.33
H      -4.76       8.80       8.84
H      -1.76       7.28      11.25
H      -0.30       9.28      10.84
C       1.13      16.65       8.44
N       0.86      15.44       8.94
C       0.44      17.13       7.32
N      -0.51      16.41       6.71
C      -0.76      15.20       7.21
N      -1.26      12.48       8.57
C      -0.08      14.69       8.33
N       0.48      12.94       9.91
C      -0.31      13.38       8.90
N       0.06      11.71      10.26
C      -0.99      11.47       9.44
