36

C      20.46      18.97      15.34
C      21.69      19.67      15.34
C      22.92      18.97      15.34
C      22.93      17.57      15.33
C      21.69      21.08      15.34
C      21.69      22.31      15.34
C      21.69      23.72      15.34
C      20.46      24.41      15.34
C      20.45      25.81      15.33
C      21.69      26.53      15.31
C      22.93      25.81      15.33
C      22.92      24.41      15.34
O      20.56      14.76      15.29
O      22.82      28.62      15.29
O      22.82      14.76      15.29
H      23.96      16.00      15.31
H      23.96      20.57      15.34
H      19.42      20.57      15.34
H      19.42      22.81      15.34
H      23.96      22.81      15.34
O      20.56      28.62      15.29
H      19.42      27.38      15.31
H      23.96      27.38      15.31
H      19.42      16.00      15.31
C      21.69      15.40      15.29
C      21.69      27.98      15.29
O      19.24      16.97      15.33
O      24.14      16.97      15.33
O      24.13      19.61      15.34
O      19.26      19.61      15.34
O      19.26      23.77      15.34
O      24.13      23.77      15.34
O      24.14      26.41      15.33
O      19.24      26.41      15.33
C      21.69      16.85      15.31
C      20.45      17.57      15.33
