144

H      -4.74      12.58       9.06
H      -6.35       9.12       7.05
H     -10.14      11.50       8.08
H      -9.44      12.71       9.19
H     -12.21      12.23       9.44
H     -14.30      15.53       8.07
H     -12.45      16.15       6.52
H     -10.31      14.79       6.55
H      -5.39       8.02       8.78
H      -3.88       8.02       9.71
H      -5.28       8.97      10.27
H      -3.16      10.24       6.72
H      -2.51       8.88       7.66
H      -4.04       8.69       6.76
H      -3.75      11.00      10.42
H      -2.41      10.00       9.80
H      -2.82      11.52       9.00
H      -7.19      18.16       4.53
H      -8.69      16.51       8.23
H      -3.51      16.03       6.42
H      -4.15      15.52       8.01
H      -1.98      14.97       8.93
H       0.13      11.69       7.58
H      -1.33      11.47       5.58
H      -3.29      13.05       5.30
H      -9.87      20.33       5.43
H      -8.16      20.03       5.05
H      -9.43      18.94       4.41
H     -10.83      17.57       6.03
H     -10.49      17.56       7.78
H     -11.14      19.02       7.01
H      -8.42      18.99       8.64
H      -7.55      20.00       7.47
H      -9.23      20.39       7.90
H      -5.29      11.66       1.13
H      -2.99      14.71       3.14
H      -6.88      16.93       2.11
H      -7.62      15.75       0.99
H      -8.50      18.42       0.75
H     -12.38      18.71       2.12
H     -12.07      16.78       3.67
H      -9.86      15.54       3.64
H      -1.57      14.38       1.41
H      -0.86      13.04       0.48
H      -2.35      13.84      -0.08
H      -2.48      11.37       3.46
H      -0.98      11.43       2.52
H      -1.52      12.87       3.43
H      -3.43      11.53      -0.23
H      -1.92      10.82       0.39
H      -3.45      10.46       1.19
H     -11.37      11.20       5.65
H     -10.62      13.30       1.96
H      -7.76       8.95       3.77
H      -7.61       9.76       2.18
H      -6.10       8.10       1.25
H      -2.21       7.78       2.61
H      -2.71       9.18       4.61
H      -5.02      10.16       4.88
H     -14.54      12.54       4.75
H     -13.47      11.18       5.14
H     -13.11      12.81       5.77
H     -12.56      14.69       4.15
H     -12.39      14.40       2.41
H     -13.98      14.28       3.18
H     -12.68      11.90       1.55
H     -13.16      10.66       2.72
H     -14.29      11.96       2.29
C      -7.56      10.88       7.01
C      -7.70      12.21       7.43
C      -6.65      12.82       8.13
C      -5.52      12.08       8.49
C      -5.40      10.72       8.16
C      -6.42      10.16       7.38
C      -9.87      12.57       8.18
C     -11.09      13.43       8.02
C     -12.20      13.12       8.81
C     -13.38      14.94       8.02
C     -12.34      15.29       7.17
C     -11.16      14.53       7.18
C      -4.21       9.87       8.60
C      -4.72       8.65       9.38
C      -3.44       9.39       7.36
C      -3.25      10.65       9.51
C      -7.00      15.52       7.37
C      -6.06      15.50       6.33
C      -6.17      16.44       5.29
C      -7.15      17.44       5.35
C      -8.06      17.51       6.41
C      -7.99      16.51       7.40
C      -3.86      15.17       7.00
C      -2.78      14.13       7.10
C      -1.90      14.19       8.18
C      -0.70      12.37       7.42
C      -1.53      12.25       6.31
C      -2.60      13.13       6.15
C      -9.04      18.68       6.56
C      -9.12      19.54       5.28
C     -10.45      18.17       6.87
C      -8.53      19.56       7.71
C      -5.11      14.95       3.18
C      -6.36      14.45       2.76
C      -6.40      13.24       2.05
C      -5.21      12.59       1.69
C      -3.96      13.12       2.03
C      -3.94      14.28       2.81
C      -7.69      16.19       2.01
C      -9.02      16.86       2.16
C      -9.28      18.00       1.38
C     -11.44      18.18       2.17
C     -11.25      17.10       3.02
C     -10.03      16.41       3.01
C      -2.65      12.47       1.59
C      -1.81      13.50       0.81
C      -1.86      12.01       2.83
C      -2.88      11.25       0.68
C      -8.95      12.27       2.82
C      -8.49      11.45       3.86
C      -9.37      11.11       4.90
C     -10.71      11.51       4.84
C     -11.20      12.27       3.78
C     -10.29      12.68       2.79
C      -7.16       9.67       3.18
C      -5.74       9.20       3.08
C      -5.37       8.40       2.01
C      -3.21       8.19       2.77
C      -3.49       8.98       3.88
C      -4.77       9.51       4.04
C     -12.69      12.59       3.63
C     -13.49      12.26       4.90
C     -12.91      14.08       3.32
C     -13.24      11.72       2.48
S      -8.87      10.00       6.19
S      -6.84      14.46       8.79
S      -4.96      16.52       4.00
S      -7.94      12.63       1.40
N     -13.32      13.87       8.83
N      -0.88      13.32       8.35
N     -10.46      18.63       1.35
N      -4.13       7.91       1.83
O      -8.87      12.92       7.21
O      -5.01      14.60       6.35
O      -7.53      15.15       2.98
O      -7.20      10.96       3.84
