87

H       4.40      15.75      13.82
H       4.39      15.68      16.27
H       4.67      15.84      18.20
H       4.70      15.82      20.63
H       2.22      10.19      25.84
H       2.02      11.94      25.01
H       2.08      14.04      23.79
H       3.35      15.40      22.50
H       4.40       9.85      30.27
H       4.39      12.01      29.11
H       4.63      13.61      28.02
H       4.69      15.71      26.79
H       3.01      23.05      29.16
H       2.62      21.51      28.06
H       2.42      19.43      26.83
H       3.55      17.54      26.22
H       5.35      26.93      27.15
H       5.18      24.84      25.87
H       5.21      23.08      24.98
H       5.00      20.99      23.75
H       2.32      19.48      16.33
H       2.09      19.30      18.26
H       2.14      19.29      20.69
H       3.58      19.70      22.50
H       4.75      25.24      31.60
H       3.89      20.50      13.20
H       3.82       6.97      26.49
C       3.32      17.58      12.20
C       4.28      27.50      29.54
C       3.29       7.55      29.52
C       3.95      16.56      14.39
C       3.94      16.53      15.77
C       4.09      16.59      18.72
C       4.10      16.57      20.11
C       2.70       8.92      27.48
C       2.69      10.15      26.82
C       2.63      12.74      25.41
C       2.67      13.94      24.71
C       3.36      17.62      13.69
C       3.36      17.58      16.52
C       3.38      17.57      18.00
C       3.42      17.55      20.86
C       3.45      17.55      22.33
C       3.41      16.34      23.05
C       3.93       9.94      29.30
C       3.91      11.16      28.63
C       4.04      13.69      27.11
C       4.07      14.89      26.41
C       3.62      25.07      29.41
C       3.53      23.89      28.68
C       3.17      21.42      27.13
C       3.06      20.22      26.43
C       3.32       8.81      28.74
C       3.30      11.29      27.37
C       3.32      12.58      26.63
C       3.39      15.05      25.19
C       3.44      16.32      24.45
C       3.52      17.54      25.13
C       4.84      26.06      27.58
C       4.74      24.88      26.86
C       4.57      22.30      25.39
C       4.45      21.11      24.69
C       2.77      18.67      14.41
C       2.77      18.64      15.81
C       2.69      18.54      18.76
C       2.72      18.54      20.15
C       4.27      26.19      28.85
C       4.07      23.76      27.39
C       3.94      22.49      26.63
C       3.70      20.04      25.19
C       3.58      18.77      24.45
C       3.54      18.75      23.05
C       3.02      25.08      30.79
C       2.16      19.87      13.75
C       2.08       7.75      26.77
O       2.29       6.78      29.32
O       2.32      18.13      11.64
O       3.28      27.73      30.30
O       4.26       7.34      30.33
O       5.25      28.29      29.30
O       4.28      16.98      11.61
O       3.76      25.31      31.85
O       1.82      24.78      30.91
O       2.90      20.68      13.01
O       0.97      20.13      13.95
O       2.83       6.72      26.43
O       0.89       7.80      26.45
