30

H       5.83       5.41      15.05
H       5.12       4.88      16.51
H       9.77       5.42      15.53
H      10.46       4.94      14.04
H       9.46       8.04      18.79
H       6.10       8.14      11.91
H       6.06       5.40      18.69
H       9.50       5.52      11.89
C       7.72       6.68      20.38
C       7.82       6.83      10.26
C       8.71       7.50      16.83
C       6.86       7.55      13.84
C       8.73       7.47      18.22
C       6.83       7.56      12.45
C       7.75       6.71      18.88
C       6.83       5.98      16.75
C       7.80       6.82      11.76
C       6.81       5.98      18.15
C       8.76       6.08      12.46
C       8.75       6.04      13.86
C       7.79       6.78      16.06
C       7.79       6.80      14.58
N       5.95       5.19      16.03
N       9.63       5.22      14.54
Cl       9.89       8.50      16.02
Cl       5.68       8.52      14.69
O       8.80       7.00      20.98
O       6.73       7.16       9.67
O       6.63       6.35      20.94
O       8.91       6.51       9.68
