34

C       8.77       9.37      25.31
C      12.87      12.27      25.31
C      11.54      11.80      28.77
C      11.54      11.81      27.38
C      10.10       9.84      28.77
C      10.10       9.83      27.38
C       9.84      10.10      23.12
C       9.83      10.10      24.51
C      11.80      11.54      23.12
C      11.81      11.54      24.51
C      10.82      10.82      29.47
C      10.82      10.82      26.68
C      10.82      10.82      22.42
C      10.82      10.82      25.21
H      12.10      12.55      29.33
H       9.54       9.09      29.33
H       9.09       9.54      22.56
H      12.55      12.10      22.56
H      11.56      13.67      26.30
H      13.04      13.33      27.20
H      10.08       7.97      26.30
H       8.59       8.30      27.20
H       7.97      10.08      25.59
H       8.30       8.59      24.69
H      13.67      11.56      25.59
H      13.33      13.04      24.69
O      10.02      10.00      31.54
O      11.62      11.63      31.54
C      10.82      10.82      30.96
C      10.82      10.82      20.93
O      10.00      10.02      20.35
O      11.63      11.62      20.35
C      12.27      12.87      26.58
C       9.37       8.77      26.58
