24

C       2.82      10.31      17.47
C       2.42       9.87      18.74
H       2.31      14.92      18.15
C       2.46       8.52      19.04
H       2.13      12.56      18.96
H       3.54      13.39      14.32
C       2.89       7.61      18.07
H       2.08      10.59      19.49
C       3.29       8.12      16.83
C       2.93       6.13      18.34
H       2.15       8.14      20.01
H       3.65       7.46      16.04
N       3.18      11.99      15.80
N       3.26       9.43      16.54
C       3.17      15.77      15.73
O       3.21      16.61      16.67
C       2.96      14.34      16.18
O       3.33      15.97      14.49
C       2.54      14.08      17.49
O       3.41       5.40      17.43
C       2.45      12.77      17.94
O       2.46       5.78      19.47
C       2.81      11.73      17.07
C       3.24      13.25      15.36
