30

H       9.00       2.09       5.35
H       9.23       2.13       7.84
H       9.26      -2.19       7.87
H       9.43       2.18      12.19
O       9.45      -1.10      16.93
H       9.41      -2.14      12.23
H       9.43      -2.09      14.74
O       9.51       1.18      16.94
O       8.78      -1.17       3.14
O       8.83       1.11       3.16
O       9.02      -2.48       5.33
O       9.47       2.48      14.74
H       8.91      -2.29       4.35
H       9.49       2.29      15.72
C       9.47       0.03      16.34
C       8.86      -0.02       3.75
C       8.99      -0.05       5.21
C       9.06       1.17       5.92
C       9.19       1.19       7.30
C       9.26      -0.03       8.01
C       9.20      -1.25       7.32
C       9.07      -1.28       5.93
C       9.35      -0.02       9.42
C       9.40       0.00      10.64
C       9.42       0.02      12.05
C       9.43       1.24      12.74
C       9.45       1.28      14.14
C       9.45       0.05      14.86
C       9.43      -1.17      14.16
C       9.42      -1.20      12.78
