33

C       6.00       5.78       4.98
O       2.91       7.71       7.10
C       7.05       5.16       5.69
H       4.16       6.92       5.12
O       3.83       7.18       9.06
H       6.02       5.78       3.89
C       7.03       5.20       7.09
C       5.99       5.82       7.77
H       7.84       4.72       7.65
C       8.11       4.45       4.96
H       5.96       5.84       8.86
C       7.78       3.65       3.85
H       6.73       3.58       3.54
C       8.74       2.94       3.15
H       8.46       2.34       2.29
C      10.09       3.04       3.53
H      11.49       3.95       4.91
H       9.75       5.18       6.18
C      10.44       3.86       4.62
C       9.46       4.54       5.34
H       9.95       0.48       2.60
C      11.11       2.30       2.77
H      11.69      -0.72       1.29
C      10.88       0.98       2.35
H      14.19       2.58       1.32
C      11.84       0.31       1.61
H      12.57       3.91       2.69
C       4.96       6.41       5.66
C       3.84       7.12       7.79
C      13.25       2.16       1.65
C       4.94       6.43       7.06
C      12.34       2.88       2.41
N      13.01       0.89       1.25
