16

C      10.40       6.54       9.16
O      11.31       5.73       9.54
H      10.53       6.40      12.01
C       7.30       9.61      12.16
C       9.82       7.10      11.58
C       7.44       9.49      13.54
C       9.66       7.25      10.22
C       8.95       7.96      12.29
C       8.15       8.74      11.44
S       8.64       8.30      13.96
S       8.46       8.43       9.77
F       6.45      10.45      11.55
O      10.09       6.82       7.95
O       7.11      10.00      15.80
C       6.77      10.25      14.60
O       5.90      11.11      14.22
