20

H       7.07       9.78       5.51
H       7.06      12.27       5.67
C       4.97       8.09       5.36
C       4.95      13.96       5.68
C       3.75      10.33       5.44
C       3.75      11.72       5.54
C       4.94       9.58       5.42
C       4.93      12.46       5.62
C       6.12      10.33       5.51
C       6.12      11.72       5.61
C       2.25      11.84       5.52
C       2.26      10.21       5.36
Br       1.49      12.52       7.19
Br       1.60       9.53       3.64
Br       1.51      12.86       4.03
Br       1.40       9.19       6.79
O       3.85       7.50       5.31
O       3.83      14.54       5.68
O       6.12       7.54       5.37
O       6.10      14.52       5.70
