12

C       5.48       6.08       9.91
C       5.47       7.50      17.57
C       5.45       7.24      16.38
C       5.44       6.95      15.07
C       5.44       6.68      13.86
C       5.46       6.43      12.55
C       5.49       6.22      11.34
O       6.73       7.70      19.50
O       4.46       7.87      19.63
O       6.60       6.12       9.31
O       4.34       5.96       9.36
C       5.55       7.71      18.99
