26

O      23.89      16.20      14.37
O      25.04      15.20      16.06
O      19.27      11.31      14.23
O      20.30      10.20      15.93
H      24.18      12.94      13.93
H      23.05      14.03      13.12
H      21.46      12.31      13.05
H      22.59      11.24      13.89
H      19.89      13.77      14.36
H      19.87      13.71      16.13
H      21.48      15.48      14.46
H      21.48      15.38      16.23
H      24.20      12.83      16.48
H      23.10      13.84      17.41
H      21.48      12.15      17.35
H      22.58      11.14      16.43
C      24.06      15.28      15.24
C      20.18      11.18      15.12
C      23.16      13.35      13.98
C      22.10      12.22      13.94
C      21.22      12.28      15.21
C      20.53      13.66      15.25
C      21.59      14.79      15.31
C      23.01      14.18      15.28
C      23.18      13.25      16.49
C      22.11      12.13      16.45
