30

H       2.63      16.67      19.79
H       2.67      18.83      21.01
Cl       1.21      18.73      15.59
H       1.47      20.84      17.38
H       1.47      21.99      23.84
Cl       1.21      24.10      25.63
H       1.99      22.16      19.26
H       1.99      20.67      21.95
H       2.67      24.00      20.21
H       2.63      26.16      21.43
O       0.99      26.95      24.71
O       2.86      27.48      23.55
O       0.99      15.88      16.51
O       2.85      15.35      17.67
C       1.93      26.67      23.90
C       1.93      16.16      17.31
C       1.96      17.51      17.93
C       2.35      17.60      19.28
C       2.36      18.80      19.96
C       2.03      20.00      19.29
C       1.69      19.92      17.93
C       1.63      18.70      17.26
C       2.04      21.30      19.94
C       2.04      21.52      21.27
C       1.70      22.90      23.29
C       2.03      22.83      21.92
C       2.36      24.02      21.25
C       2.35      25.23      21.93
C       1.96      25.32      23.28
C       1.63      24.12      23.95
