36

C       6.57      16.38       0.39
H      13.15      10.73       3.55
C       5.82      16.05       1.54
H      13.10       8.81       5.22
C       6.14      14.93       2.31
H      10.86       8.12       6.18
C       6.31      17.64      -0.32
H       8.82       9.23       5.37
C       6.59      17.83      -1.69
C       6.41      19.09      -2.26
H       8.76      13.75       0.47
H       8.19      15.74      -0.89
C       5.69      19.98      -0.26
H       4.97      16.66       1.84
C       5.83      18.76       0.38
H       5.52      14.68       3.17
H       6.94      17.01      -2.31
H       6.60      19.26      -3.32
H       5.37      20.86       0.29
H       5.61      18.69       1.45
H       7.20      10.91       4.99
C      12.22      10.38       4.01
C      12.18       9.32       4.92
N      11.12      11.04       3.63
C      10.95       8.92       5.44
C       9.80       9.58       5.02
N       8.89      12.46       2.82
C       9.93      10.65       4.14
N       6.81      12.45       3.70
C       8.82      11.49       3.73
N       7.57      11.49       4.26
C       7.63      13.02       2.82
N       5.98      20.16      -1.56
C       7.23      14.13       1.95
C       7.94      14.40       0.77
C       7.60      15.51      -0.00
