20

H      -0.80       2.96       7.28
C     -11.16       3.69       6.78
H     -10.83       3.13       5.91
H     -11.25       5.14       9.74
C     -10.44       3.98       7.97
C      -6.59       3.54       8.79
C     -11.37       4.70       8.75
C      -0.55       3.48       8.20
H      -0.82       5.03      11.09
C      -0.57       4.53      10.15
C      -1.43       3.94       9.20
N     -12.39       4.21       6.84
N     -12.52       4.84       8.07
C      -9.10       3.72       8.28
C      -7.91       3.59       8.54
N       0.72       3.78       8.53
C      -5.37       3.58       8.98
C      -4.04       3.68       9.13
C      -2.82       3.81       9.21
N       0.70       4.42       9.74
