14

H      -0.79       7.30       9.02
C      -5.37       6.66       7.99
C       3.40       6.66       6.91
H      -1.21       6.21       6.15
C       1.96       6.67       6.83
C      -3.95       6.77       8.19
C      -0.65       6.57       7.02
C      -1.34       6.93       8.14
C      -2.73       6.85       8.20
O      -6.07       7.69       8.33
O       3.94       5.54       7.12
O      -5.81       5.58       7.50
O       4.00       7.78       6.78
C       0.74       6.64       6.91
