18

O       6.13       0.56       2.14
O       7.38       2.46       2.27
C       7.79      -0.46       0.22
C       8.70      -1.01      -0.67
O       7.74      -3.08      -1.06
O       8.13      -1.75      -2.78
N       8.17      -2.05      -1.58
H       6.79      -0.87       0.30
C      10.01      -0.54      -0.80
H      11.40       0.93      -0.09
C      11.02      -1.18      -1.70
C      10.38       0.56      -0.01
O      10.82      -2.39      -2.05
C       9.46       1.17       0.85
C       7.15       1.28       1.87
C       8.17       0.65       0.97
H       9.74       2.05       1.43
O      12.01      -0.44      -2.02
