25

N      14.70       7.76      11.59
O      11.80       7.03       8.35
O      10.53       6.80      10.23
O      15.03       9.74      14.29
O      16.54       9.82      12.58
H      14.02       6.26      10.34
H      13.05      10.61      12.38
H      10.31      10.25      12.50
H       8.40      11.60      11.68
H       8.13      12.05       9.24
H       9.82      11.14       7.63
H      11.70       9.78       8.45
C      11.56       7.18       9.59
C      12.59       7.87      10.43
C      13.79       7.24      10.77
C      14.39       8.94      12.16
C      13.21       9.65      11.91
C      12.30       9.14      10.98
C      11.13       9.92      10.53
C      10.20      10.45      11.43
C       9.12      11.21      10.97
C       8.98      11.46       9.60
C       9.91      10.95       8.70
C      10.97      10.17       9.16
C      15.41       9.54      13.09
