16

O      -1.04       9.31       3.23
O       1.25       9.31       3.08
C       0.34       9.35      11.25
C       1.34       9.33       6.04
C      -0.82       9.34       8.93
C       0.23       9.32       5.20
C       0.29       9.35       9.78
C      -0.43       9.34       7.57
C       0.96       9.34       7.40
O       1.50       9.44      11.78
O      -0.78       9.27      11.86
S      -1.28       9.33       6.08
S       1.80       9.36       8.90
Br       3.15       9.32       5.53
Br      -2.63       9.34       9.42
C       0.15       9.31       3.73
