16

C      -4.33       1.37      14.70
C      -4.62       4.01      15.51
C      -5.58       3.42      14.70
C      -3.36       1.94      15.52
C      -2.47       3.89      16.80
C      -5.46       2.08      14.27
C      -3.51       3.27      15.92
H      -2.50       1.35      15.83
F      -4.14       0.08      14.35
H      -4.72       5.05      15.83
O      -1.48       3.15      17.13
H      -6.46       3.98      14.37
O      -7.57       2.22      13.23
C      -6.53       1.49      13.41
O      -6.33       0.34      12.92
O      -2.66       5.10      17.15
