17

C      14.34       2.82       2.67
O      12.47       1.66       1.01
C      13.99       2.61       5.43
O      17.09       4.54       5.36
O      11.26       0.91       2.79
O      16.32       4.06       2.96
C      16.07       3.91       5.88
C      13.07       2.03       4.58
H      12.20       1.49       4.97
H      14.48       2.91       1.59
H      13.87       2.54       6.52
C      15.28       3.41       3.53
C      12.25       1.52       2.26
C      15.11       3.31       4.93
C      13.25       2.14       3.19
H      16.87       4.41       3.72
O      15.87       3.77       7.13
