16

C       4.18      11.91       9.46
H       1.71      13.38      13.15
O       1.68       9.92      15.11
H       2.80      13.71      10.90
C       3.50      11.70      10.78
O       0.91      12.02      15.11
C       2.83      12.75      11.41
C       3.57      10.45      11.41
C       2.97      10.26      12.66
C       2.29      11.31      13.28
C       2.23      12.56      12.65
O       4.90      11.00       8.96
C       1.58      11.09      14.59
O       4.04      13.07       8.91
H       3.00       9.29      13.15
H       4.08       9.62      10.92
