36

C      10.81       0.70      18.46
C      10.81       0.70      16.06
O      11.32      -7.81      16.24
C      10.81      -7.24      17.26
O      10.31      -7.81      18.28
O      10.31       7.81      16.24
C      10.81       7.24      17.26
O      11.32       7.81      18.28
F      12.92      -5.64      16.13
F      12.90      -2.97      16.13
F       8.70      -5.64      18.38
F       8.72      -2.97      18.38
F      10.80      -1.35      14.88
F      10.82       1.35      14.88
F      10.82      -1.35      19.64
F      10.80       1.35      19.64
F       8.72       2.97      16.13
F       8.70       5.64      16.13
F      12.90       2.97      18.38
F      12.92       5.64      18.38
C      10.81      -5.74      17.26
C       9.76      -5.01      17.84
C       9.77      -3.62      17.84
C      11.86      -5.01      16.67
C      11.86      -3.62      16.68
C      10.81      -2.90      17.26
C      10.81      -1.42      17.26
C      10.81      -0.70      16.06
C      10.81      -0.70      18.46
C      10.81       5.74      17.26
C      11.86       5.01      17.84
C      11.86       3.62      17.84
C       9.76       5.01      16.67
C       9.77       3.62      16.68
C      10.81       2.90      17.26
C      10.81       1.42      17.26
