34

H      -0.81       6.68       5.38
H      -1.18      10.40       3.21
H       0.06      10.74      11.16
H       0.02      14.25       8.63
H      -0.91       8.06       7.39
H      -2.26       9.17       7.12
H      -1.65      10.18       9.13
H      -0.11       9.32       9.18
H       1.41       8.77       6.62
H       1.98      10.36       8.24
H      -0.38      11.59       5.00
H      -2.02      11.10       5.45
H      -1.85      12.17       7.52
H      -0.40      12.94       6.87
H       1.59      10.06       5.43
H       1.82      11.69       7.09
C      -0.95       7.48       4.66
C      -1.14       9.37       3.55
C      -0.79       8.87       4.81
C       0.02      11.73      10.72
C       0.00      13.51       9.43
C       0.10      12.11       9.37
C      -1.17       9.13       7.28
C      -0.77       9.92       8.53
C       1.05       9.77       6.34
C      -0.97      11.13       5.80
C      -0.47       9.69       6.03
C      -0.02      11.22       8.15
C       1.32      10.80       7.48
C      -0.86      11.96       7.09
N      -1.37       7.19       3.41
N      -1.49       8.37       2.72
N      -0.16      12.82      11.50
N      -0.17      13.93      10.70
