23

O      14.13       4.98       0.85
O      13.80      -0.93       4.90
O      13.76       6.23       2.73
O      13.69       0.40       6.74
H      10.34       1.10       1.70
H      11.08      -0.51       1.57
H       9.53      -0.32       2.40
H      11.39      -0.57       4.07
H      10.65       1.03       4.21
H      12.45       1.98       2.75
H      13.23       0.39       2.67
H      13.64       4.74       4.76
H      14.30       2.99       2.31
H      14.20       2.63       6.00
C      13.63       0.20       5.49
C      13.80       3.80       4.22
C      14.04       3.88       2.89
C      13.81       2.57       4.99
C      13.36       1.36       4.58
C      13.98       5.13       2.12
C      12.61       1.05       3.31
C      11.25       0.38       3.55
C      10.51       0.15       2.23
