34

C       5.50       9.11       5.46
C      10.87       9.16       9.87
H      10.34       8.76       3.04
H      10.26       8.86       5.53
H       6.05       9.01       2.92
H      10.32       9.12      12.40
H       6.03       8.87      12.27
H       6.11       8.92       9.78
O       7.01       8.76      14.55
O       9.23       9.23      14.58
O       9.35       8.62       0.77
O       7.13       9.08       0.74
H       6.24       9.25       7.24
H      10.14       9.26       8.08
O       5.36       9.23       6.80
C       8.13       8.99      13.99
O       4.51       9.07       4.74
O      11.02       9.25       8.52
O      11.86       9.13      10.58
C       8.23       8.86       1.33
C       8.20       8.89       2.83
C       9.39       8.84       3.57
C       9.34       8.90       4.95
C       8.11       8.99       5.63
C       6.90       9.03       4.89
C       6.97       8.98       3.49
C       8.14       9.03       7.05
C       8.24       9.04       8.27
C       8.27       9.04       9.68
C       9.48       9.09      10.44
C       9.40       9.08      11.83
C       8.17       9.00      12.49
C       6.98       8.94      11.75
C       7.03       8.96      10.36
