16

C      18.42       6.59      14.45
O      18.42       3.14      12.11
C      18.42       5.18      16.43
C      18.42       7.68      16.71
O      18.42       1.83      13.97
C      18.42       4.05      15.63
C      18.42       5.45      13.65
C      18.42       2.96      13.37
C      18.42       6.46      15.85
H      18.42       7.58      14.01
H      18.42       5.11      17.52
C      18.42       4.18      14.23
H      18.42       3.05      16.07
H      18.42       5.53      12.56
O      18.42       8.81      16.11
O      18.42       7.49      17.97
