20

H      14.59       3.47      19.85
O      10.72       3.37      15.59
H      10.81       3.79      23.09
H      10.36       3.83      20.64
H      15.04       3.43      22.29
O      13.55       2.22      27.31
O      14.77       4.14      27.27
O      11.73       5.40      15.80
C      11.91       3.88      17.52
C      13.77       3.53      20.56
C      14.02       3.52      21.92
C      11.63       3.72      22.37
C      11.38       3.73      21.01
C      12.44       3.65      20.08
C      12.96       3.62      22.85
C      13.23       3.59      24.24
C      12.17       3.74      18.70
C      13.49       3.55      25.42
C      11.44       4.25      16.21
C      13.94       3.29      26.76
