22

C      -0.96       6.30      31.21
C       0.14       5.63      30.60
H       1.19       7.43      29.92
C      -2.01       5.58      31.75
H      -2.81       3.62      32.18
H      -2.86       6.11      32.19
C       1.18       6.34      29.93
C       2.18       5.66      29.28
C      -0.90       3.49      31.22
C      -1.98       4.18      31.75
C       0.18       4.20      30.61
C       1.25       3.53      29.96
C       2.21       4.25      29.30
C      -0.98       7.79      31.33
O      -2.04       8.40      30.95
C      -0.90       2.00      31.32
O       0.06       8.33      31.83
O       0.12       1.47      31.86
O      -1.92       1.39      30.87
F       3.15       6.32      28.62
F       3.22       3.62      28.65
H       1.32       2.44      29.97
