16

O       5.68      11.49      10.36
O       3.97      11.74      11.81
O       6.96      11.49      17.38
C       6.15      11.31      12.67
C       5.84      11.75      13.96
C       6.71      11.52      15.03
C       7.89      10.79      14.80
C       8.22      10.37      13.52
C       7.36      10.64      12.45
C       5.20      11.54      11.54
C       6.41      12.06      16.39
O       5.63      13.07      16.46
H       4.92      12.31      14.14
H       8.54      10.58      15.65
H       9.16       9.84      13.34
H       7.61      10.33      11.43
