90

H       8.87       6.40      14.06
H       6.58       7.56      17.52
H       6.53       9.90      16.71
H       8.69       8.72      13.19
H       7.39       2.67      16.40
H       5.34       6.31      15.37
H       3.39       4.99      14.59
H       5.48       1.35      15.51
H       8.09       4.18      13.98
H      10.22       4.77      17.68
H      12.15       3.56      16.76
H       9.98       2.85      13.12
H       6.05       4.40      20.70
H       9.47       7.00      20.46
H       9.43       6.82      18.02
H       6.08       4.13      18.28
H       7.50       8.28      20.81
H       7.84       6.83      24.85
H       7.73       9.16      25.69
H       7.43      10.60      21.66
H       7.76       3.88      24.24
H       5.13       6.45      21.99
H       3.17       5.19      22.86
H       5.81       2.64      25.08
H       8.47       3.37      21.75
H      10.12       6.88      23.64
H      12.12       5.56      24.30
H      10.38       2.04      22.57
C       7.80       5.91      22.31
C       7.76       5.36      16.41
C       3.25       2.91      24.43
C      12.43       2.84      24.09
C       7.56      11.44      24.22
C       7.58      10.86      14.42
C       3.23       2.26      14.42
C      12.30       2.28      14.34
C       8.33       7.15      14.64
C       7.74       6.80      15.86
C       7.06       7.81      16.58
C       7.03       9.12      16.13
C       7.62       9.45      14.90
C       8.25       8.45      14.15
C       6.52       3.18      16.00
C       6.51       4.59      15.93
C       5.37       5.23      15.43
C       4.27       4.49      14.99
C       4.32       3.09      14.99
C       5.45       2.44      15.51
C       8.98       4.06      14.60
C       9.01       4.60      15.89
C      10.17       4.41      16.66
C      11.26       3.71      16.14
C      11.21       3.14      14.87
C      10.05       3.32      14.10
C       6.81       4.93      20.13
C       7.73       5.76      20.78
C       8.71       6.39      19.99
C       8.70       6.26      18.61
C       7.76       5.44      17.95
C       6.83       4.77      18.74
C       7.57       8.46      21.88
C       7.73       7.38      22.76
C       7.77       7.65      24.14
C       7.70       8.96      24.62
C       7.59      10.03      23.72
C       7.52       9.77      22.35
C       6.76       4.18      23.92
C       6.60       5.21      22.99
C       5.28       5.61      22.66
C       4.18       4.91      23.16
C       4.37       3.80      23.99
C       5.67       3.48      24.40
C       9.25       3.86      22.34
C       9.12       5.21      22.70
C      10.18       5.82      23.38
C      11.31       5.08      23.76
C      11.36       3.71      23.51
C      10.33       3.11      22.78
O      13.65       3.23      24.04
O       3.62       1.80      24.95
O      12.02       1.74      24.57
O       2.04       3.29      24.28
O       7.57      11.62      25.48
O       7.55      12.37      23.34
O       7.62      11.05      13.16
O       7.52      11.77      15.32
O       3.58       1.15      13.91
O       2.02       2.69      14.49
O      13.52       2.58      14.63
O      11.93       1.30      13.63
