16

C       3.04      -1.85       7.84
C       1.99      -2.52       8.40
C       4.24      -2.48       7.17
C       0.80      -1.89       9.06
O       4.20       0.20       7.97
O       3.08      -4.64       8.50
H       4.78      -1.73       6.58
H       3.94      -3.31       6.53
O       1.95       0.27       7.74
H       4.94      -2.89       7.91
O       0.83      -4.57       8.26
H       0.09      -1.48       8.33
C       3.06      -0.35       7.86
H       1.09      -1.06       9.71
C       1.98      -4.02       8.38
H       0.25      -2.64       9.66
