13

H      -1.77      -2.99       8.78
H      -2.05      -1.39       9.54
H      -1.46      -2.72      10.52
N       0.83      -2.59       8.43
N       0.63      -0.79       9.70
N       2.04      -1.93       8.44
H       3.96      -0.31       9.36
H       2.88       0.39      10.61
C      -0.01      -1.88       9.20
C      -1.40      -2.28       9.52
C       1.90      -0.86       9.22
C       2.97       0.12       9.55
H       2.87       1.04       8.95
