22

H       3.56      16.26      20.96
C       5.52      17.11      23.62
C       4.42      16.65      22.91
C       6.63      17.69      22.93
H       7.74      18.32      19.73
C       7.72      18.32      23.60
H       9.55      19.41      20.95
C       8.75      18.93      22.91
C       5.48      16.91      25.11
O       4.34      16.84      18.75
O       6.61      16.78      18.71
H       3.56      16.26      23.45
H       7.74      18.32      24.68
H       9.55      19.41      23.46
O       4.34      16.84      25.66
O       6.61      16.78      25.70
C       5.48      16.91      19.30
C       5.52      17.11      20.79
C       4.42      16.65      21.50
C       6.63      17.69      21.48
C       7.72      18.32      20.81
C       8.74      18.93      21.50
