28

Br       7.21       7.70       9.65
Br       7.20       9.04       5.72
O      11.05       3.89      13.17
O       8.78       3.90      13.10
O      11.69      11.67       1.89
O       9.44      11.64       1.61
H       7.92       5.86      11.83
H      12.00       4.75      10.98
H      11.96       6.20       8.94
H      12.23       8.93       5.86
H      12.49      10.29       3.77
H       8.23      10.50       3.35
C       9.93       4.26      12.68
C       9.96       5.20      11.52
C       8.81       5.93      11.20
C      11.11       5.32      10.72
C      11.09       6.13       9.59
C       8.80       6.75      10.07
C       9.93       6.86       9.24
C       9.92       7.65       8.07
C       9.96       8.28       7.03
C      10.07       9.00       5.83
C       8.95       9.44       5.09
C      11.36       9.31       5.32
C      11.50      10.04       4.15
C       9.09      10.15       3.91
C      10.38      10.47       3.44
C      10.52      11.32       2.22
