18

O       3.04      18.38       8.92
H      -1.74      17.12       8.97
H       3.41      14.43       9.30
C       3.29      17.16       9.25
C       0.00      14.41       9.41
H      -2.26      15.55       9.29
N      -1.56      16.26       9.49
C      -0.24      15.78       9.37
O       2.71      11.97       9.31
C       2.15      16.19       9.25
O       4.44      16.75       9.62
O       0.50      11.73       9.69
H       0.67      17.74       9.29
C       1.51      12.45       9.46
C       1.31      13.92       9.37
C       2.39      14.81       9.30
C       0.84      16.67       9.29
H      -0.83      13.70       9.48
