61

C       7.85       7.37       4.71
C       8.91       8.28       4.83
C       6.80       7.65       3.83
C       8.90       9.46       4.08
C       6.80       8.82       3.08
C       7.85       9.75       3.19
H      12.29       4.24      12.66
C       7.85      11.00       2.40
C       6.66      11.62       2.01
C       9.05      11.62       2.00
H      11.26       4.18      10.44
H       3.42      -1.16       4.15
C       6.71      12.80       1.26
C       8.99      12.79       1.26
H       9.39       7.98      11.38
H       6.32       1.59       1.31
N      11.45       6.05      13.21
N       4.26      -0.89       2.28
H      10.51       7.86      13.59
H       5.20      -0.46       0.49
N       7.85       6.17       5.47
H      10.40       4.18       8.69
N       7.85      13.39       0.88
H       5.31       2.41       5.89
H       9.39       4.24       6.47
H       6.32       4.44       6.79
H       7.58       8.05       7.36
H       8.12       5.25       2.96
H       8.57       8.01       9.59
H       7.14       3.22       2.04
H       9.73       8.09       5.51
H       5.97       6.95       3.71
H       9.73      10.16       4.20
H       5.98       9.01       2.39
H       5.69      11.21       2.28
H      10.02      11.19       2.26
H       5.78      13.28       0.96
H       9.93      13.27       0.96
C      11.64       5.05      12.33
C       4.07      -0.52       3.56
C      11.05       5.03      11.08
C       4.66       0.60       4.11
C      10.20       6.08      10.67
C       5.50       1.42       3.33
H       4.45       0.83       5.15
C      10.01       7.12      11.61
C       5.70       1.01       1.99
C      10.64       7.07      12.85
C       5.07      -0.13       1.51
C       9.58       6.09       9.34
C       6.13       2.63       3.89
C       9.78       5.04       8.43
C       5.93       3.01       5.23
C       9.21       5.06       7.16
C       6.50       4.17       5.75
C       8.41       6.15       6.76
C       7.29       4.99       4.94
C       8.20       7.20       7.66
C       7.51       4.62       3.60
C       8.77       7.17       8.93
C       6.94       3.46       3.09
