17

O       6.20       7.94       1.37
O       3.93       7.95       1.37
C       5.07       8.30       1.83
O       2.66      10.96       5.09
H       7.23       9.26       3.15
H       2.93       9.35       3.10
H       7.24      10.80       5.10
C       5.09      10.95       5.22
C       5.08       9.22       3.01
C       3.86      10.54       4.63
H       2.87      11.58       5.85
O       6.24      12.18       6.89
C       5.12      11.85       6.38
C       6.30       9.62       3.58
C       3.87       9.67       3.54
C       6.30      10.48       4.67
O       3.97      12.26       6.84
