20

O       2.99       4.26       5.20
O       1.74       5.33       6.77
H       1.92       7.59       4.18
H       1.16       3.96       2.69
O      -2.61       6.54       1.29
O      -1.31       8.40       1.50
C       0.71       4.86       3.12
C       0.81       6.30       2.53
C      -0.74       6.52       2.75
C      -1.63       7.20       1.78
C       1.98       4.96       5.58
C      -0.39       7.11       4.18
C       1.13       6.88       3.94
C       1.03       5.43       4.54
C      -0.51       5.66       4.79
C      -0.81       5.08       3.36
I      -1.11       8.91       5.02
I      -1.55       5.11       6.54
I      -2.26       3.59       2.95
I       1.87       6.81       0.77
