34

H       8.68      16.75      16.82
H       2.30      13.32      16.73
H       7.67      18.63      14.16
H       3.33      11.42      19.38
O       4.46      18.95      12.69
O       6.70      19.13      12.95
H       3.51      16.97      13.89
H       7.48      13.07      19.66
O       6.55      11.18      20.86
H       1.42      14.58      15.03
O       4.31      10.95      20.61
H       9.56      15.52      18.54
O       7.83      18.05      14.96
O       3.17      12.00      18.58
C       5.56      18.60      13.26
O       2.14      15.20      14.81
C       5.45      11.47      20.29
O       8.85      14.88      18.74
C       6.69      17.33      15.11
C       4.31      12.72      18.42
C       5.54      17.56      14.30
C       5.46      12.49      19.22
C       4.39      16.79      14.50
C       6.61      13.27      19.03
C       4.35      15.77      15.45
C       6.64      14.29      18.08
C       5.50      15.54      16.28
C       5.49      14.51      17.26
C       6.67      16.34      16.11
C       4.32      13.72      17.42
C       3.20      14.94      15.64
C       7.79      15.13      17.90
C       7.81      16.12      16.95
C       3.18      13.95      16.59
