24

C      12.35      20.67      10.68
C      11.98      19.88      11.78
C      11.64      17.53      12.77
C      11.53      20.55      12.94
C      11.31      21.92      12.93
H      10.75      24.53       9.53
H      12.39      22.62       9.78
C      11.54      22.69      11.78
H      12.77      20.20       9.79
H      11.24      19.97      13.82
H      10.87      22.39      13.81
H      10.77      24.75      13.85
C      11.05      24.06      11.71
H      11.71      17.68      13.85
N      10.10      25.97      10.94
H      11.70      17.91       9.52
N      11.28      16.32      12.29
C      11.65      17.63      10.57
N      10.10      26.03      12.31
N      11.28      16.39      10.93
C      11.87      18.42      11.71
C      10.67      24.80      10.58
C      10.67      24.90      12.78
C      12.13      22.04      10.67
