16

C       7.52       7.86      18.28
O       7.58       7.67      17.02
O       7.48       8.98      18.89
S       7.40       4.34      22.41
S       7.61       5.11      18.31
C       7.48       1.58      22.40
C       7.44       6.52      20.50
C       7.57       2.91      20.22
C       7.52       6.65      19.12
C       7.49       2.81      21.59
C       7.55       4.26      19.81
C       7.46       5.16      20.90
H       7.63       2.04      19.57
Br       7.33       7.89      21.77
O       7.39       1.74      23.66
O       7.56       0.47      21.76
