31

C       8.74       9.08      17.65
C      11.14      11.05      21.50
C      11.27      11.25      22.87
C       9.70       9.46      23.28
C       9.62       9.23      21.91
C      10.32      10.03      20.99
C      10.54      10.47      23.77
C      10.55      10.83      25.21
C      13.21      10.99      18.80
H      12.01       8.77      16.81
H      11.66      11.72      20.82
H      11.92      12.04      23.24
H       9.00       8.41      21.54
N      12.64       9.69      19.21
H       9.11       8.87      23.98
H       7.75       8.95      17.23
Cl       7.46      10.03      19.80
O       9.45      10.80      25.83
O      11.69      11.20      25.71
H      13.25       8.98      18.80
H      14.21      11.10      19.26
H      13.30      11.09      17.71
O      10.85       7.87      14.96
H      12.58      11.81      19.16
O       8.60       7.70      15.19
C       9.77       8.08      15.58
C       9.87       8.75      16.90
C      11.15       8.99      17.43
C      11.31       9.49      18.72
C      10.18       9.74      19.54
C       8.91       9.58      18.94
