16

S      21.80      13.36      18.17
O      25.29      11.69      18.82
O      24.10      12.14      16.92
C      24.27      12.12      18.19
F      23.92      12.18      21.23
S      21.07      13.61      22.30
F      18.97      14.83      19.24
C      23.02      12.67      20.36
C      19.86      14.33      20.10
C      23.16      12.65      18.98
C      19.72      14.35      21.48
C      21.06      13.71      19.68
C      21.82      13.28      20.78
C      18.63      14.90      22.29
O      17.68      15.49      21.67
O      18.73      14.74      23.55
