42

H       4.76      10.09       7.00
H       8.49       9.12      10.65
H       9.40      11.31       9.79
H       7.31       8.07      12.40
H       5.70       8.84      12.38
H       7.93       9.29      14.45
H       6.48      10.28      14.35
H       5.04       8.27      14.86
H       6.23       8.58      16.15
H       6.50       7.27      14.99
H      10.27      12.99      12.65
H      10.82      12.00      11.28
H       9.39      10.94      13.78
H       9.89       9.95      12.41
H      12.30      10.60      12.77
H      11.62       9.81      14.20
H      11.82      11.58      14.18
C       6.87      14.00       8.57
C       5.74       8.22       8.83
C       7.28      11.65       9.48
C       6.71      12.50       8.52
C       5.83      11.84       7.63
C       5.44      10.50       7.75
C       5.97       9.70       8.77
C       6.89      10.31       9.61
C       7.85      10.02      10.75
C       8.49      11.45      10.41
C       6.75       8.98      12.69
C       6.86       9.26      14.19
C       6.11       8.29      15.09
C      10.05      12.08      12.07
C      10.14      10.85      12.98
C      11.55      10.71      13.56
N       5.39      12.54       6.40
O       8.02      14.52       8.43
O       5.80      14.62       8.88
O       6.81       7.55       9.03
O       4.57       7.74       8.68
O       7.31      10.13      12.05
O       8.77      12.32      11.46
O       4.61      11.96       5.64
O       5.89      13.66       6.17
