28

O       9.14       8.27       4.61
O       5.58       5.62      -4.60
O       7.52       9.88       4.77
O       7.55       6.75      -4.62
H       7.33       5.56       1.22
H       6.52       3.70      -0.15
H       7.26       8.65      -3.39
H       8.27      10.40      -2.05
H       6.02       4.06      -2.58
C       7.57       8.22       1.91
C       8.95      10.23       1.97
C       6.64       6.11      -2.54
C       6.63       4.69      -0.59
C       7.07       5.75       0.19
C       8.31       9.11       4.14
C       6.57       6.18      -4.03
C       8.82      10.36       0.59
C       8.27       9.19       2.63
C       7.22       7.05      -0.34
C       6.36       4.88      -1.96
C       7.08       7.22      -1.75
C       7.63       8.18       0.49
C       8.16       9.35      -0.17
C       7.97       9.47      -1.58
C       7.40       8.49      -2.33
I      10.10      11.55       3.14
I       9.62      12.04      -0.40
I       6.21       7.06       3.09
