29

C       6.09      11.37       8.92
C       8.69      12.52       7.10
C       7.43      11.67       6.85
H       3.38       8.02       7.10
C       7.11      11.56       5.34
H       7.02       6.76       8.61
C       6.68      12.90       4.73
H       7.60       9.07       9.38
C       6.11      10.45       5.04
H       3.79      10.38       7.80
N       5.20       7.32       7.81
H       5.27      11.85       9.47
N       6.30      12.15       7.67
H       7.00      11.44       9.53
H       7.71      10.65       7.18
O       8.64      13.51       7.89
H       8.06      11.28       4.87
O       9.72      12.13       6.48
H       6.57      12.78       3.65
H       7.43      13.69       4.91
H       5.73      13.27       5.15
H       5.10      10.68       5.41
H       6.42       9.49       5.48
H       6.05      10.31       3.95
C       4.31       8.31       7.59
C       6.34       7.60       8.46
C       6.65       8.89       8.88
C       5.76       9.93       8.62
C       4.55       9.62       7.99
