38

H       5.37      11.86       7.84
H       6.05      13.50       7.95
H       6.54      12.24       9.11
H       4.95      13.72      10.27
H       4.19      12.16      10.01
H      -1.45      15.10       8.18
H      -0.77      16.74       8.30
H      -1.94      16.37       7.03
H       0.41      16.44       6.13
H      -0.35      14.88       5.87
H       2.90      16.91      10.84
H       3.80      15.49      11.43
H       4.61      17.06      11.27
H       5.28      15.62       9.35
H       4.34      17.00       8.79
H       0.80      13.11       4.71
H       1.70      11.69       5.29
H      -0.02      11.54       4.87
H       0.25      11.60       7.35
H      -0.68      12.98       6.79
C       3.29      15.13       8.70
C       1.30      13.47       7.44
C       4.56      13.06       9.49
C       2.18      15.65       8.01
C       5.69      12.64       8.54
C       0.04      15.55       6.65
C      -1.10      15.96       7.60
C       4.27      16.06       9.37
C       3.87      16.40      10.81
C       0.32      12.54       6.77
C       0.73      12.20       5.33
C       2.42      12.95       8.13
C       1.18      14.87       7.36
C       3.41      13.73       8.78
C       2.01      17.05       7.97
C       2.59      11.55       8.17
N       2.78      10.40       8.19
N       1.82      18.20       7.94
