18

C      10.76      13.85       2.63
C      11.79      13.17       3.45
C      11.36      12.20       4.37
C      12.24      11.55       5.22
C      13.61      11.86       5.16
C      14.05      12.80       4.23
C      13.18      13.48       3.35
C      14.65      11.26       6.06
H      14.65      14.62       2.50
O       9.60      13.30       2.57
O      11.08      14.96       2.05
O      15.53      12.08       6.49
O      14.58      10.02       6.31
N      13.68      14.35       2.43
H      10.29      11.99       4.43
H      15.12      13.04       4.20
Cl      11.59      10.44       6.39
H      13.03      14.98       1.98
