22

O      -0.02      -3.50      12.38
O       0.04       3.49      10.20
O       0.06       2.16       8.34
O       0.23      -2.18      14.23
H      -2.39       1.68       9.36
H      -4.44       0.34       9.61
H      -2.35      -2.49      12.10
H       2.09      -0.67      12.51
C      -2.37       0.77       9.97
C      -3.52       0.03      10.10
C      -3.49      -1.15      10.87
C      -2.35      -1.57      11.52
C      -1.16      -0.80      11.41
C      -1.16       0.38      10.60
C       0.04       1.14      10.47
C       1.18       0.74      11.14
C       1.18      -0.39      11.98
C       0.04      -1.16      12.10
C       0.06       2.37       9.60
C       0.08      -2.38      12.98
Br       2.82       1.67      10.92
Br      -5.08      -2.19      11.02
