46

C       7.15       3.63       8.28
C       7.28       4.61       5.59
H      14.38       1.13       3.58
H       0.05       7.11      10.28
H      12.71       2.04       5.21
H       1.72       6.20       8.65
H      10.13       2.87       1.84
H       4.30       5.37      12.02
H      11.88       1.89       0.37
H       2.55       6.35      13.50
H      10.04       2.06       7.28
H       4.39       6.18       6.59
H       9.93       1.23       9.62
H       4.50       7.01       4.25
H       8.07       1.93      11.11
H       6.37       6.31       2.76
H       6.28       3.43      10.26
H       8.15       4.81       3.61
N      13.20       1.48       1.92
N       1.23       6.76      11.95
C      13.43       1.53       3.25
C       1.00       6.71      10.62
C      12.50       2.04       4.15
C       1.93       6.20       9.72
C      11.28       2.53       3.65
C       3.16       5.71      10.21
C      11.06       2.50       2.26
C       3.37       5.74      11.60
C      12.04       1.96       1.44
C       2.40       6.28      12.43
C      10.27       2.99       4.52
C       4.16       5.25       9.34
C       9.35       3.35       5.25
C       5.08       4.89       8.62
C       8.29       3.73       6.09
C       6.14       4.51       7.78
C       8.23       3.24       7.42
C       6.20       5.00       6.44
C       9.23       2.36       7.94
C       5.20       5.88       5.93
C       9.16       1.90       9.23
C       5.27       6.34       4.63
C       8.09       2.29      10.08
C       6.34       5.95       3.79
C       7.11       3.13       9.61
C       7.32       5.11       4.26
