30

C      -0.24      11.55       1.31
C      -1.63      12.01       0.80
C      -1.65      12.01      -0.77
C      -0.23      11.28       2.73
C      -0.15      12.24      -2.74
H       1.67      13.07      -1.06
H       1.09       9.85       1.02
H       1.83      12.12       1.07
O       1.09      10.07       5.63
O      -1.13      13.53      -5.73
O      -1.19      10.06       5.77
O       1.14      13.56      -5.60
H       1.54      10.67      -1.13
F       0.80      13.71       1.74
C      -0.00      13.26      -5.17
F      -0.81       9.32       0.65
F       0.09      14.24      -0.66
F      -2.32      13.11      -1.23
F      -2.63      11.21       1.28
F      -2.34      10.91      -1.22
F      -1.89      13.28       1.26
F      -0.01       9.57      -1.76
C      -0.06      10.34       5.20
C       0.69      13.01      -0.57
C       0.19      10.27       0.54
C       0.45      10.59      -0.96
C       0.85      12.60       0.92
C      -0.16      10.95       3.90
C      -0.09      12.60      -3.90
C      -0.19      11.96      -1.32
