17

O       9.41       8.41       5.99
O       9.37      15.37       6.09
H       6.09      13.11       5.95
H      10.41      13.15       6.04
O       7.09      15.34       6.00
O       7.14       8.40       5.86
H      10.53       9.62       6.02
O      10.71      10.60       6.03
H       6.13      10.63       5.93
C       8.26       9.00       5.94
C       8.24      14.78       6.03
C       8.28      10.48       5.97
C       8.25      13.28       6.00
C       9.50      11.20       6.01
C       7.04      12.57       5.97
C       9.47      12.60       6.02
C       7.06      11.19       5.95
