26

C       9.97       9.80       5.92
C      12.21       7.32       8.58
C      11.55       6.39       9.38
C      11.47       8.19       7.70
C      12.11       9.06       6.78
C      11.37       9.85       5.91
H       8.23       8.90       6.78
H       9.39      10.41       5.23
H      13.19       9.09       6.75
H      11.89      10.50       5.21
N      12.19       5.52      10.24
N       9.54       5.34      10.19
O      14.29       8.48       8.63
O      14.32       6.23       8.67
O       7.31       6.04       8.60
O       7.28       8.28       8.87
H      13.17       5.37      10.01
H      11.66       4.67      10.42
H       8.54       5.21      10.03
H       9.79       5.41      11.18
C      13.70       7.36       8.62
C       7.89       7.17       8.68
C       9.38       7.20       8.58
C      10.04       8.13       7.70
C      10.11       6.33       9.38
C       9.31       8.95       6.79
