28

H       3.83       2.65       9.30
H       3.80       4.38       7.49
H      -0.36       3.35      10.05
H       3.61       8.93       2.35
H      -0.58       9.64       3.09
H      -0.55       7.91       4.90
C       1.52      10.49       1.61
C       1.73       1.80      10.79
C       1.74       2.88       9.77
C       2.91       3.19       9.06
C       2.89       4.14       8.05
C       1.70       4.83       7.73
C       0.55       4.53       8.49
C       0.55       3.57       9.49
C       1.64       5.75       6.67
C       1.60       6.53       5.73
C       1.54       7.45       4.67
C       2.69       7.75       3.90
C       2.70       8.71       2.91
C       1.51       9.40       2.63
C       0.33       9.10       3.34
C       0.35       8.14       4.34
O       2.63      10.77       1.07
O       0.41      11.09       1.39
O       2.83       1.20      11.01
O       0.62       1.51      11.33
F      -0.60       5.20       8.22
F       3.84       7.08       4.18
