26

O       1.57      11.97       0.56
O       2.77      10.87      -1.02
O       7.28      15.93      -1.06
O       6.34      16.91       0.76
H       2.44      14.22      -1.43
H       3.61      13.22      -2.30
H       5.12      15.00      -2.24
H       3.97      15.97      -1.32
H       6.73      13.47      -1.05
H       6.77      13.42       0.72
H       5.18      11.72      -1.05
H       5.19      11.70       0.72
H       2.43      14.22       1.12
H       3.52      13.16       2.00
H       5.14      14.84       2.05
H       4.02      15.92       1.22
C       2.58      11.83      -0.20
C       6.42      15.99      -0.12
C       3.46      13.84      -1.40
C       4.49      15.00      -1.35
C       5.38      14.87      -0.10
C       6.10      13.51      -0.15
C       5.06      12.36      -0.16
C       3.63      12.94      -0.14
C       3.44      13.80       1.11
C       4.50      14.93       1.16
