13

O       3.63       5.32       3.07
H       2.24       3.83       2.66
H       3.58       3.37       3.76
C       2.89       4.18       3.48
O       5.22       7.29       2.43
O       5.91       6.22       0.54
C       2.03       4.56       4.67
C       4.37       5.10       1.88
H       5.03       4.22       1.99
H       3.68       4.94       1.03
C       5.23       6.33       1.61
O       2.05       5.74       5.10
O       1.35       3.58       5.12
