13

N      11.63      11.10       8.02
H       9.86      10.01       7.52
H      10.35      11.28       6.37
H      11.42      10.61      10.10
H      11.52       9.22       9.03
O      12.70       9.36       6.25
O      10.73       8.76       5.35
O      13.78       9.41      10.44
O      14.23      10.67       8.67
C      11.42       9.46       6.15
C      10.73      10.49       7.04
C      11.91      10.24       9.19
C      13.40      10.10       9.46
