16

C       6.43      14.98       2.26
C       7.28      14.28       3.11
C       7.65      14.85       4.33
C       7.27      16.16       4.65
C       6.50      16.90       3.75
H       6.05      14.52       1.35
C       6.04      16.29       2.58
H       6.21      17.92       3.98
H       7.60      13.27       2.86
O       9.34      13.29       5.01
O       7.93      14.19       6.55
H       7.56      16.58       5.61
O       5.21      18.20       1.40
C       5.02      16.97       1.73
C       8.36      14.05       5.37
O       4.03      16.26       1.38
