24

C       6.52       3.30      13.59
C       7.49       4.31      13.55
H       3.02       1.06      11.95
C       8.69       4.14      14.23
H       3.72       4.94      10.21
C       8.90       2.96      14.95
H       5.61       5.23      11.79
C       7.85       2.03      15.02
H       7.32       5.20      12.95
C       2.17       2.65       9.93
H       9.48       4.88      14.19
C      10.23       2.64      15.58
H       7.96       1.12      15.59
N       4.57       2.17      12.76
N       6.70       2.21      14.37
O       1.81       1.47       9.74
O       1.70       3.69       9.31
C       3.57       2.00      11.89
O      10.30       1.40      15.99
C       3.25       2.96      10.93
O      11.12       3.50      15.66
C       3.96       4.16      10.93
C       5.02       4.32      11.82
C       5.32       3.29      12.72
