15

C       1.06       9.28       9.75
O       3.09      11.35       9.89
C       1.01      10.50       9.16
C      -2.17       7.32       8.96
O      -1.99       6.35       9.78
C       2.06      11.52       9.15
O       2.16       8.87      10.45
H      -1.26       9.13       8.13
O       1.84      12.53       8.37
C      -1.12       8.36       8.89
H       0.01       7.48      10.40
H       2.01       7.96      10.77
C      -0.05       8.32       9.70
H       0.10      10.76       8.62
O      -3.18       7.49       8.19
