12

C      32.53      18.56      18.56
O      31.38      11.63      11.63
O      33.67      11.63      11.63
C      32.53      12.03      12.03
C      32.53      17.54      17.54
C      32.53      16.67      16.67
C      32.53      15.73      15.73
C      32.53      14.86      14.86
C      32.53      13.91      13.91
C      32.53      13.04      13.04
O      32.53      19.77      18.15
O      32.53      18.15      19.77
