16

O      17.48      18.49      26.31
O      22.18      21.36      30.64
C      22.43      20.15      30.32
O      23.43      19.46      30.71
C      21.46      19.49      29.38
C      18.50      17.82      26.66
C      19.47      18.48      27.60
H      20.63      16.68      27.64
C      19.39      19.79      28.10
C      21.54      18.17      28.89
C      20.36      20.27      28.97
C      20.56      17.69      28.02
O      18.78      16.63      26.28
H      20.30      21.29      29.35
Br      18.01      21.04      27.67
Br      22.92      16.93      29.31
