20

H       2.14      10.81       6.24
H       1.05       5.51       6.16
H       2.83       5.52       6.21
H       2.91       5.57       3.69
H       1.13       5.56       3.63
C       1.98       8.67       2.05
C       2.00       8.65       7.90
C       2.01       8.65       6.41
C       2.01       8.70       3.53
C       1.95       7.48       5.66
C       2.04       9.88       4.30
C       2.00       7.51       4.27
C       2.08       9.86       5.70
C       1.95       5.97       5.72
C       2.00       6.00       4.14
Cl       2.10      11.42       3.51
O       2.90       8.01       1.47
O       1.02       9.26       1.46
O       2.93       9.28       8.50
O       1.05       8.01       8.47
