13

C       3.92       5.01       6.43
H       3.78       5.07       9.17
C       4.23       6.15       7.36
H       4.50       6.98      10.66
C       4.13       6.01       8.75
C       4.51       7.06       9.57
H       5.30       9.39       7.39
N       4.93       8.24       9.07
H       4.73       7.52       5.77
C       4.97       8.41       7.74
O       4.51       4.99       5.30
C       4.65       7.38       6.85
O       3.07       4.14       6.80
