14

C       9.30       0.32       7.62
C       8.50      -0.44       8.43
H       7.88       0.06       9.18
C       9.38       1.71       7.68
C       8.38      -3.05       8.29
H       9.92      -0.18       6.87
O      10.42       4.84       8.61
O       7.54      -5.06       9.03
O       8.72       5.01       7.07
O       9.05      -5.03       7.31
C       8.44      -1.83       8.35
C       9.54       4.37       7.80
C       8.32      -4.48       8.21
C       9.47       2.93       7.72
