48

O       5.79      15.11       7.75
O       7.38       3.20      17.82
H       4.62       4.28      15.30
H       8.81      14.09       9.96
H       8.53       7.31      15.49
H       5.09      10.80       9.93
O       3.85       5.35      12.91
O       3.83       7.49      13.68
H       6.38       8.74      10.27
H       7.34       9.49      15.09
H       7.48      11.38      13.50
H       6.25       6.85      11.86
O       9.85      10.90      11.63
O       9.87      13.12      12.07
O       8.76       5.73      18.50
O       9.65       4.65      16.70
O       3.67      12.89       8.20
O       5.35      12.40       6.74
H       3.08       7.54      13.05
H      10.74      12.85      12.44
H      10.37       4.32      17.31
H       4.64      12.59       6.09
C       6.93      14.70       8.14
C       6.30       3.68      17.37
C       5.46       4.96      15.38
C       7.99      13.37       9.97
C       5.53       6.04      14.50
C       8.04      12.26      10.82
C       6.63       6.92      14.55
C       6.98      11.33      10.83
C       7.64       6.67      15.49
C       5.93      11.51       9.92
C       7.56       5.61      16.39
C       5.92      12.57       9.02
C       6.44       4.76      16.35
C       6.94      13.54       9.07
C       7.15       9.32      14.03
C       6.58       8.91      11.33
C       7.22      10.38      13.14
C       6.51       7.85      12.23
C       6.94      10.19      11.77
C       6.77       8.04      13.59
C       4.35       6.23      13.60
C       9.31      11.99      11.55
C       8.70       5.34      17.34
C       4.85      12.66       7.98
O       8.05      15.19       7.80
O       5.12       3.35      17.75
