28

N      14.76       5.48      13.93
H      17.53       5.41      14.11
H      17.61       3.72      14.67
H      16.83       4.97      15.68
H      15.10       3.54      14.55
H      15.78       3.92      12.97
H      13.66       4.74      15.54
H      13.95       9.70      12.41
O      11.96       6.29      17.11
O      10.63       6.65      15.30
O      12.50       8.92      14.29
O      15.96       9.47       9.09
O      15.82      10.91      10.85
H      16.73       7.26      10.20
H      16.44       5.44      11.82
C      16.98       4.62      14.65
C      15.64       4.31      13.99
C      13.78       5.60      14.87
C      12.94       6.68      14.97
C      11.76       6.55      15.88
C      13.14       7.86      14.15
C      14.21       7.70      13.14
C      14.48       8.76      12.26
C      15.39       8.61      11.21
C      16.05       7.38      11.04
C      15.87       6.36      11.94
C      14.96       6.50      13.01
C      15.74       9.75      10.32
