15

H      20.46       6.21       9.20
N      19.84       6.90       9.62
C      20.02       7.05      11.08
H      20.38       8.05      11.38
O      20.82       6.09      13.07
C      18.43       6.46       9.81
O      16.56       7.94       9.54
C      17.46       7.26       8.94
O      17.65       7.17       7.69
C      20.91       6.06      11.80
O      21.67       5.30      11.11
C      18.50       6.82      11.31
H      17.93       7.71      11.57
H      18.25       6.01      12.01
H      18.25       5.39       9.61
