54

C       9.06       5.99      10.71
C       8.95       6.94       9.52
C      10.53       7.17       9.72
H       8.38       7.85       9.77
H      11.15       6.98       8.83
C      11.42       2.81      13.56
C      10.81       2.01      14.69
C      11.35       0.58      14.72
C       8.55       5.66      14.90
C       9.03       5.10      16.23
C       8.83       6.18      17.30
C       8.64       5.14       7.90
C      10.00       4.78       7.32
C       9.93       3.45       6.57
C      10.51       9.57       9.55
C      11.59       9.92       8.55
C      11.27      11.20       7.78
H      12.52       2.80      13.60
H      11.09       2.44      12.58
H      11.03       2.52      15.64
H       9.71       2.01      14.58
H      11.18       0.06      13.77
H      10.87      -0.00      15.52
H      12.43       0.57      14.91
H       7.56       6.11      14.98
H       9.26       6.41      14.53
H       8.44       4.20      16.48
H      10.08       4.79      16.16
H       9.39       7.09      17.05
H       9.18       5.83      18.28
N      11.18       5.48      11.73
N       8.30       5.46      11.70
H       7.86       4.98       7.14
H       8.38       4.51       8.76
H      10.32       5.58       6.64
H      10.77       4.72       8.12
H       9.59       2.63       7.22
H      10.91       3.15       6.17
H       9.23       3.51       5.72
H      10.38      10.38      10.28
H       9.54       9.43       9.04
H      12.54      10.03       9.08
H      11.73       9.09       7.84
H      10.34      11.11       7.20
H      12.08      11.46       7.08
O      11.04       4.22      13.69
O       8.39       4.61      13.85
O       8.49       6.52       8.26
O      10.82       8.40      10.35
H      11.15      12.05       8.47
H       7.77       6.45      17.40
C      10.43       6.08      10.78
C      10.45       4.85      12.67
C       9.02       4.95      12.72
