20

H      20.33       6.92      19.53
H      21.22       7.51      20.95
H      23.00       8.47      19.45
H      22.11       7.88      18.02
O      26.30       5.41      17.56
O      25.09       7.35      17.49
C      25.30       6.14      17.87
O      21.25       2.72      21.82
C      21.13       3.91      21.41
O      20.18       4.72      21.68
C      22.20       4.45      20.51
C      24.26       5.55      18.76
C      22.15       5.75      19.99
C      24.32       4.24      19.27
C      23.13       6.27      19.16
C      23.33       3.71      20.11
C      21.32       7.02      19.98
C      22.44       7.61      19.03
F      25.35       3.41      18.99
F      23.53       2.44      20.53
