26

O      24.18      16.39      14.34
O      25.29      15.42      16.07
O      19.55      11.50      14.18
O      20.57      10.40      15.89
H      24.46      13.15      13.91
H      23.33      14.24      13.09
H      21.74      12.53      13.02
H      22.87      11.45      13.84
H      20.16      13.97      14.34
H      20.14      13.90      16.10
H      21.75      15.69      14.44
H      21.75      15.58      16.21
H      24.47      13.03      16.45
H      23.37      14.03      17.39
H      21.76      12.33      17.31
H      22.87      11.33      16.39
C      24.33      15.49      15.23
C      20.46      11.38      15.08
C      23.44      13.56      13.95
C      22.38      12.43      13.90
C      21.50      12.48      15.17
C      20.80      13.86      15.22
C      21.86      14.99      15.29
C      23.28      14.38      15.26
C      23.45      13.44      16.46
C      22.39      12.32      16.41
