29

C       7.43       8.17      26.51
C       6.89       5.14      22.71
C       8.36       4.97      23.12
C       8.52       3.79      24.08
O       5.62       5.82      15.43
H       5.97       9.69      19.89
O       7.22       9.35      26.93
O       8.03       7.23      27.15
H       6.50       5.39      20.01
O       4.46       7.78      15.35
H       7.90       3.94      24.97
H       8.22       2.85      23.60
H       9.56       3.69      24.41
F       6.28      10.00      22.44
H       8.71       5.89      23.60
H       6.28       5.17      23.63
H       6.57       4.27      22.13
H       8.97       4.83      22.21
C       5.75       7.28      17.21
C       6.15       8.77      20.44
C       6.33       8.80      21.81
C       6.63       6.39      21.92
C       6.45       6.35      20.54
C       6.21       7.52      19.79
C       6.57       7.65      22.58
C       6.78       7.76      23.97
C       5.98       7.42      18.40
C       7.00       7.88      25.17
C       5.27       6.94      15.90
