16

C       0.48       2.20      13.20
O       1.62       0.78      15.29
C      -0.06       2.91      12.13
O       0.86       5.58       9.83
H      -0.09       1.39      13.66
H      -1.05       2.67      11.75
C       0.67       3.95      11.54
O      -1.06       4.38       9.96
C       1.95       4.27      12.03
H       2.51       5.08      11.57
C       2.49       3.55      13.09
H       3.48       3.79      13.47
C       2.35       1.71      14.79
C       1.76       2.51      13.68
C       0.10       4.69      10.37
O       3.53       1.98      15.18
