41

C      -6.89      13.45       7.14
H      -0.01      14.70       4.90
H       2.07      13.73       5.79
H       2.05       9.83       7.63
H      -0.10       8.62       7.94
H      -2.56       8.67       7.97
H      -6.74      14.24       6.41
H       4.29      13.74       5.77
C       4.22      10.22       8.96
N       5.72      12.94       7.09
N       5.71      11.92       8.01
N      -7.93      13.51       7.99
N      -7.90      12.41       8.78
H      -6.63      10.73       8.94
H       3.28      10.37       9.51
H       4.15       9.25       8.45
H      -4.67      10.00       7.78
H       5.03      10.15       9.70
H      -4.59      13.85       5.82
H      -2.49      14.73       4.89
C      -6.84      11.65       8.42
C      -6.14      12.28       7.38
C      -4.12      10.79       7.26
C      -4.79      11.97       6.88
C      -4.08      12.94       6.16
C      -2.70      12.84       5.95
C      -2.00      11.71       6.47
C      -2.74      10.65       7.08
C      -1.94      13.89       5.33
C      -0.58      13.87       5.34
C       0.15      12.80       5.95
C      -0.58      11.69       6.47
C       0.13      10.60       7.05
C      -0.64       9.48       7.54
C      -2.00       9.51       7.56
C       1.54      12.84       6.12
C       2.24      11.82       6.78
C       4.50      13.00       6.53
C       1.52      10.67       7.18
C       3.66      12.00       7.07
C       4.49      11.34       8.01
