20

H       2.06      23.76      13.67
H       1.09      18.45      13.68
H       2.87      18.47      13.70
H       2.90      18.47      11.19
H       1.13      18.48      11.16
C       1.99      21.60       9.51
C       2.00      21.59      15.37
C       1.99      21.60      13.89
C       2.00      21.60      11.00
C       1.97      20.42      13.14
C       1.99      22.78      11.77
C       2.01      20.43      11.75
C       2.03      22.80      13.16
C       1.98      18.90      13.23
C       2.01      18.91      11.64
O       2.93      20.95       8.94
O       1.05      22.21       8.92
O       2.93      22.22      15.97
O       1.06      20.94      15.94
F       1.99      23.98      11.12
