14

O       4.63       0.66       6.58
O       6.31       0.65       9.21
H       2.10       5.00       9.09
C       3.99       1.72       6.66
H       3.01       4.11      11.27
C       3.79       2.38       8.01
O       4.41      -0.43       9.73
C       2.74       4.12       9.13
C       3.24       3.60      10.33
N       3.03       3.49       7.99
N       4.00       2.51      10.39
C       4.27       1.89       9.23
C       5.04       0.59       9.37
O       3.41       2.33       5.67
