22

O       7.17       8.85      16.48
O       9.36       9.39      16.42
H       9.91       7.21      22.47
O       7.10       9.24      23.43
O       9.35       9.17      23.47
C       8.28       9.15      21.37
C       9.11       8.20      20.68
C       7.50      10.02      20.63
C       9.90       7.24      21.38
C      10.67       6.35      20.68
C       8.31       9.12      18.53
C       7.51      10.00      19.23
C       9.13       8.20      19.24
C       9.94       7.25      18.56
C      10.70       6.35      19.27
H       9.97       7.22      17.47
F       6.73      10.90      18.58
F       6.72      10.95      21.24
F      11.42       5.43      21.34
F      11.48       5.45      18.63
C       8.27       9.13      17.03
C       8.24       9.20      22.87
