20

H       1.11       3.79      10.94
H      -1.25       3.68      10.81
H       1.19       3.29       9.25
N       1.24       5.37       9.56
H      -1.17       3.32       9.08
N      -1.32       5.36       9.55
H       1.17       6.13      11.52
H       1.10       7.36      10.24
H      -1.20       5.96      11.55
H      -1.29       7.29      10.39
H       1.18       6.69       7.93
H      -1.19       6.80       8.04
H       1.12       4.97       7.51
H      -1.25       5.12       7.47
C       0.74       4.02       9.93
C      -0.81       4.00       9.86
C       0.72       6.37      10.55
C      -0.83       6.31      10.59
C       0.74       5.73       8.21
C      -0.81       5.79       8.22
