25

C       2.30      12.75       5.39
N       2.09       9.78       7.25
H       4.14      13.06       4.34
C       3.17      13.49       4.59
N       3.63      10.63       5.79
H       3.46      15.37       3.57
C       2.79      14.76       4.18
N       1.07      13.22       5.77
H       1.21      16.25       4.29
C       1.54      15.26       4.58
N       5.28       5.85       6.93
H      -0.27      14.80       5.70
C       0.71      14.46       5.37
H       5.33       8.69       5.08
C       4.04       8.38       6.79
H       6.34       6.43       5.23
C       5.04       8.01       5.88
H       4.15       5.53       8.64
C       5.61       6.75       5.97
H       2.97       7.71       8.55
C       4.37       6.25       7.86
C       2.58      11.45       5.93
C       3.73       7.47       7.81
C       3.29       9.61       6.62
N       1.64      10.96       6.78
