30

C      15.54       0.02       0.02
C      18.35      -0.00      -0.00
Br      17.41      -2.37       3.35
Br      20.72      -2.38       3.35
Br      17.41       2.37      -3.35
Br      20.72       2.37      -3.35
O      13.46      -0.62       0.96
O      24.67       0.70      -0.90
O      13.46       0.70      -0.90
O      24.67      -0.62       0.96
H      22.47      -1.22       1.76
H      22.47       1.25      -1.73
H      15.66       1.25      -1.74
H      15.66      -1.22       1.76
C      14.04       0.04       0.03
C      24.09       0.04       0.03
C      21.90      -0.69       1.00
C      20.50      -0.71       1.01
C      19.75      -1.43       2.02
C      21.90       0.71      -0.98
C      20.50       0.72      -1.01
C      19.75       1.42      -2.02
C      16.23       0.71      -0.98
C      17.63       0.72      -1.01
C      18.38       1.42      -2.02
C      16.23      -0.69       1.00
C      17.63      -0.71       1.01
C      18.38      -1.43       2.02
C      22.59       0.03       0.02
C      19.77      -0.00      -0.00
