28

C       9.91       6.66       9.04
C      12.33      11.65      10.41
H      12.14      13.78      10.47
C      10.52      12.84       9.35
H      10.08      13.78       9.01
C      11.71      12.84      10.12
C      10.45       7.93       9.45
C      11.79      10.39      10.01
C      11.79       7.93      10.00
C      10.45      10.38       9.45
C       9.75       9.15       9.27
C      12.49       9.16      10.19
C      10.53       5.47       9.34
C      11.72       5.47      10.10
H      12.16       4.53      10.44
H      10.09       4.54       8.99
H      13.27       6.66      10.95
H       8.97      11.65       8.50
H       8.98       6.66       8.49
H      13.26      11.65      10.97
O       7.62      10.27       9.13
O       7.63       8.03       9.15
O      14.62       8.05      10.34
O      14.61      10.28      10.28
C      14.00       9.16      10.32
C       8.24       9.15       9.14
C      12.34       6.66      10.40
C       9.90      11.65       9.05
