27

H      10.73       8.54       3.35
C       9.28      10.84       3.89
C       8.94      11.83       4.82
H       7.22       5.64       5.39
C       9.28      13.16       4.56
H       5.16       6.68       6.37
C       9.97      13.50       3.39
H       4.82       9.13       6.29
C      10.31      12.50       2.47
H       6.51      10.64       5.28
C       9.96      11.18       2.71
H       8.45      11.57       5.76
H       9.05      13.93       5.29
C      10.37      14.92       3.15
N       9.24       7.26       4.20
H      10.86      12.78       1.57
N       8.96       9.48       4.14
H      10.19      10.40       1.98
C       9.76       8.42       3.83
O      10.01      15.80       4.01
C       8.01       7.56       4.79
O      11.06      15.21       2.12
C       7.06       6.71       5.36
C       5.92       7.31       5.90
C       5.72       8.70       5.85
C       6.66       9.56       5.28
C       7.82       8.97       4.76
