40

H      -0.18       8.63       6.06
H      -0.12       7.62       8.34
C      -3.57      15.80       4.10
C      -3.21      14.39       4.45
H      -4.35      13.55       2.83
C      -3.67      13.33       3.66
C      -3.27      12.03       3.91
H      -3.61      11.21       3.29
C      -1.77       8.13      10.41
H      -1.29      12.61       6.64
C      -2.40      11.76       4.99
H      -2.00      14.95       6.14
C      -1.81       8.75       9.06
C      -1.96      12.82       5.81
C      -2.36      14.12       5.53
H      -0.38      11.25       3.21
C      -2.78       9.71       8.74
C      -1.56       9.67       4.08
H       0.24       9.93       1.19
C      -2.83      10.27       7.47
C      -0.74      10.23       3.09
C      -0.59       7.44       0.54
H      -2.07       6.61       2.65
C      -0.40       9.50       1.96
H      -2.65       7.91       4.70
C      -0.91       8.93       6.81
C      -0.88       8.19       1.79
C      -0.88       8.36       8.08
N      -1.94      10.44       5.20
C      -1.69       7.62       2.79
C      -2.02       8.35       3.93
O       0.22       7.97      -0.29
C      -1.89       9.88       6.49
O      -1.21       6.32       0.38
O      -2.62       8.56      11.27
O      -0.90       7.22      10.62
O      -2.97      16.73       4.75
O      -4.42      15.96       3.16
H      -3.51      10.00       9.50
H      -3.60      11.00       7.23
