22

H       5.20       4.68       3.31
H       2.63       2.23       4.26
H       0.70       3.48       3.99
H       1.08       2.25       2.73
H       0.06       3.66       2.33
H       6.28       3.60       7.15
H       4.72       4.43       7.45
H       6.07       5.33       6.68
C       4.16       1.91       6.25
C       4.31       5.85       1.73
C       3.22       4.03       3.16
C       4.27       4.83       2.77
C       3.33       3.07       4.24
C       4.20       3.07       5.29
C       0.92       3.32       2.92
C       5.58       4.35       6.77
O       5.28       1.51       6.69
O       3.02       1.42       6.52
O       5.48       6.36       1.54
O       3.26       6.19       1.09
O       2.03       4.11       2.49
O       5.15       4.02       5.43
