30

H      17.11      11.05       0.00
H       7.79      11.05       0.00
H      13.40      11.71      -2.06
H      13.40      10.40       2.06
H      11.50      11.71       2.06
H      11.50      10.40      -2.06
C      16.06      11.63      -2.44
C      16.06      10.48       2.44
C       8.84      11.63       2.44
C       8.84      10.48      -2.44
C      15.31      11.36      -1.17
C      15.31      10.75       1.17
C       9.58      11.36       1.17
C       9.58      10.75      -1.17
C      16.02      11.05      -0.00
C       8.88      11.05       0.00
C      13.91      11.40      -1.15
C      13.91      10.71       1.15
C      10.98      11.40       1.15
C      10.98      10.71      -1.15
C      13.19      11.05       0.00
C      11.71      11.05       0.00
O      17.22      11.10      -2.51
O      17.22      11.00       2.51
O       7.67      11.10       2.51
O       7.67      11.01      -2.51
O      15.47      12.32      -3.33
O      15.47       9.79       3.33
O       9.43      12.32       3.33
O       9.43       9.79      -3.33
