32

N      11.12       3.85       4.40
N      11.78       5.74       5.32
N      12.85      11.19       0.81
N      11.97      11.08      -1.20
H       9.00       4.14       4.68
H       9.85       6.56       5.81
H      13.21       4.35       4.46
H      13.59       6.38       6.14
H      12.16       7.31       6.60
H      11.15       7.53       3.56
H      11.63       9.29       1.92
H      15.30      10.22       3.96
H      14.86       8.39       5.58
H      13.81      11.97       2.49
H      14.80      10.93       1.45
H      11.12      11.92       1.88
H      10.00      11.79      -0.68
H      14.02      10.53      -0.88
C      10.00       4.54       4.83
C      10.40       5.72       5.40
C      12.18       4.60       4.69
C      12.66       6.82       5.75
C      12.97       7.84       4.68
C      12.08       8.09       3.64
C      12.35       9.10       2.72
C      13.50       9.88       2.83
C      14.40       9.61       3.87
C      14.14       8.59       4.78
C      13.80      11.04       1.90
C      11.54      11.62       0.93
C      11.00      11.55      -0.33
C      13.07      10.87      -0.48
