16

O      17.36       2.85       9.75
O      19.64       2.95       9.88
C      18.51       2.43      10.13
F      16.11      -2.28      13.07
F      20.86       0.87      11.35
C      17.40      -1.92      12.94
O      19.62      -4.27      14.64
C      18.47      -2.62      13.48
O      17.33      -4.36      14.56
C      19.19      -0.63      12.21
C      17.79      -0.78      12.21
C      19.58       0.51      11.49
C      18.50       1.21      10.95
C      18.46      -3.84      14.28
S      19.99      -1.87      13.09
S      16.98       0.46      11.33
