40

N       9.11      16.47      19.03
N       9.30      16.30      16.64
N       8.37      15.36      16.64
N       8.20      15.52      19.03
N      11.89      19.05      19.36
N      12.14      16.67      19.17
H       5.73      14.19      19.79
H       7.09      12.84      15.89
N      12.82      19.07      20.29
N      13.06      16.68      20.11
H       8.65      22.77      14.30
H      12.49      21.36      12.86
N      11.78      19.15      16.31
N       9.39      19.34      16.53
N       9.38      20.27      15.59
N      11.78      20.08      15.38
H      14.10      19.82      22.81
H      15.56      15.99      21.41
C       5.89      13.68      18.84
C       6.84      13.95      17.84
C       6.58      13.00      16.84
C       9.58      22.60      13.77
C      10.57      21.64      14.01
C      11.56      21.88      13.04
C      14.63      18.90      22.64
C      14.40      17.90      21.68
C      15.38      16.92      21.93
C       9.62      16.82      17.84
C       7.85      14.99      17.83
C      11.59      17.85      18.84
C      13.38      17.89      20.65
C      10.59      18.82      16.85
C      10.58      20.62      15.04
N      10.60      17.83      17.84
N       5.57      12.21      17.23
N       5.13      12.65      18.47
N      11.17      22.91      12.27
N       9.95      23.37      12.74
N      16.14      17.31      22.96
N      15.67      18.53      23.42
