16

Br      18.68       8.37       2.60
C      18.51       9.74       3.87
C      18.34      13.34       4.18
C      18.40       9.60       5.25
C      18.44      13.45       2.80
C      18.37      11.99       4.57
C      18.49      11.10       3.48
S      18.28      11.14       6.07
S      18.57      11.93       1.98
C      18.37       8.40       6.08
O      18.49      14.54       0.74
O      18.39       7.27       5.49
O      18.36      15.79       2.65
O      18.32       8.60       7.35
H      18.25      14.20       4.83
C      18.43      14.69       2.01
