30

C       4.66      19.18       5.72
C       2.93      21.86       9.53
C       4.96      20.13       6.71
C       4.01      21.38       8.68
C       3.88      20.61       7.56
C       1.59      21.43       9.40
C       6.31      20.55       6.84
H       2.51      24.15      12.02
C       0.60      21.96      10.21
C       7.30      20.02       6.03
H       5.39      17.84       4.22
H       4.27      23.11      10.67
H       3.62      18.87       5.57
H       5.01      21.70       8.99
H       2.89      20.29       7.25
H       1.32      20.68       8.66
H       6.57      21.31       7.58
H      -0.43      21.63      10.13
O       0.09      24.67      12.61
H       8.33      20.36       6.11
O       7.80      17.32       3.63
O      -1.34      23.07      11.99
O       9.24      18.92       4.25
C      -0.19      23.57      11.96
C       8.09      18.41       4.29
C       0.90      22.96      11.16
C       6.99      19.03       5.08
C       2.24      23.37      11.30
C       5.66      18.62       4.94
C       3.24      22.81      10.52
