28

H       2.97       3.39      14.71
H       2.92       5.10      16.53
H       7.15       2.68      15.47
H       2.78       9.59      21.73
H       6.96       8.89      22.50
H       7.01       7.17      20.67
C       4.88      10.44      23.23
C       5.05       1.83      13.98
C       5.05       2.92      14.99
C       3.86       3.62      15.28
C       3.84       4.57      16.29
C       5.00       4.85      17.04
C       6.18       4.16      16.70
C       6.22       3.21      15.69
C       4.98       5.75      18.12
C       4.95       6.51      19.08
C       4.93       7.42      20.16
C       3.75       8.11      20.50
C       3.70       9.06      21.51
C       4.88       9.35      22.21
C       6.07       8.65      21.92
C       6.09       7.70      20.92
O       3.77      11.03      23.45
O       5.99      10.73      23.77
O       3.94       1.54      13.43
O       6.16       1.24      13.75
F       7.32       4.42      17.40
F       2.61       7.84      19.80
