20

C       8.30       1.77      17.14
C       8.69       1.46      20.71
C       8.34       1.19      22.02
C       6.21       0.27      21.26
C       6.56       0.55      19.95
C       7.81       1.15      19.65
H       9.65       1.93      20.48
H       9.02       1.42      22.84
C       8.12       1.47      18.31
H       5.88       0.31      19.13
C       7.09       0.59      22.32
C       6.77       0.29      23.66
H       5.27      -0.22      21.49
C       6.60       0.01      24.84
C       6.64      -0.58      26.15
O       7.79      -0.94      26.53
O       5.54      -0.73      26.80
O       7.14       2.70      15.41
O       9.40       2.52      15.21
C       8.28       2.35      15.82
