26

H       6.29      12.49      17.39
H      10.34      13.79      18.97
H       6.39      11.02      15.39
H      10.24      15.15      21.04
H      10.58      10.35      16.07
H       6.12      14.03      21.58
H      10.47      11.73      18.13
H       6.25      12.57      19.58
C       8.54       9.78      14.36
C       8.13      15.49      22.68
C       7.23      12.00      17.13
C       9.43      13.81      19.55
C       7.28      11.19      16.00
C       9.37      14.59      20.70
C       8.49      10.61      15.60
C       8.18      14.68      21.44
C       9.64      10.82      16.37
C       7.05      13.97      21.00
C       9.58      11.61      17.52
C       7.12      13.16      19.87
C       8.37      12.22      17.92
C       8.31      13.07      19.12
O       7.42       9.47      13.84
O       9.25      15.84      23.17
O       9.69       9.47      13.90
O       6.98      15.76      23.18
