36

H      10.31       2.05       8.50
H      10.32      -2.05       8.53
H      17.21      -2.05       8.52
H      17.21       2.05       8.49
H      14.91       4.40       7.60
H      16.27       3.71       8.49
H      14.90       4.41       9.36
H      12.61       4.41       9.36
H      11.25       3.70       8.48
H      12.61       4.40       7.60
H      14.92      -4.40       9.43
H      16.28      -3.70       8.54
H      14.91      -4.41       7.66
H      12.62      -4.41       7.66
H      11.25      -3.71       8.54
H      12.62      -4.40       9.42
C      10.95       1.16       8.50
C      12.35       1.24       8.50
C      13.07       2.49       8.49
C      10.95      -1.17       8.52
C      12.35      -1.24       8.52
C      13.07      -2.49       8.53
C      16.58      -1.16       8.52
C      15.18      -1.24       8.52
C      14.46      -2.49       8.53
C      16.57       1.17       8.50
C      15.17       1.24       8.50
C      14.45       2.49       8.49
C      13.06      -0.00       8.51
C      14.47       0.00       8.51
C      15.18       3.81       8.48
C      12.33       3.81       8.48
C      15.19      -3.81       8.54
C      12.34      -3.81       8.54
N      10.29      -0.00       8.51
N      17.23       0.00       8.51
