69

H       9.59       8.29       9.77
H       9.64       8.36       7.26
H       5.36       8.04       7.17
H       9.13       8.85      -9.96
H       8.51       5.06       3.43
H       9.27       8.99      -7.46
H       6.87      11.45      -3.54
H       6.87      11.53      -1.08
H       6.82      11.52       0.85
H       5.32       7.95       9.68
H       8.15       4.86      -0.96
H       6.69      12.62       2.59
H       7.26      13.59       4.52
H       8.66      12.49       4.36
H       7.27      12.03       5.39
H       8.06       4.84      -3.43
H       5.42       7.07      -7.18
H       8.41       4.94       0.96
C       7.27       9.42      -0.80
C       7.78       6.98      -0.76
C       7.43       8.06      11.37
C       7.51       8.19      -1.48
C       7.05      10.57      -1.56
C       7.04      10.54      -2.96
C       7.25       9.35      -3.64
C       7.48       8.16      -2.91
C       7.68       6.94      -3.60
C       7.65       6.87      -5.07
C       8.70       8.28       7.80
C       7.21       9.34      -5.12
C       8.40       8.55      -7.95
C       8.31       8.48      -9.33
C       6.15       7.44      -9.18
C       6.23       7.49      -7.79
C       7.35       8.05      -7.18
C       7.27       9.44       0.67
C       7.59       8.24       1.39
C       7.85       7.02       0.70
C       7.50       8.21       7.08
C       7.02      10.59       1.39
C       8.24       5.93       2.84
C       7.96       5.80      -1.48
C       7.91       5.77      -2.88
C       7.18       7.95     -11.49
C       8.18       5.88       1.45
C       7.61       8.29       2.82
C       7.07       9.40       4.99
C       7.30       9.49       3.54
C       8.01       7.08       5.00
C       7.07      10.68       2.81
C       6.28       8.09       7.74
C       6.26       8.04       9.14
C       8.67       8.24       9.19
C       7.56      12.54       4.47
C       7.95       7.11       3.53
C       7.45       8.12       9.87
C       7.19       7.94      -9.98
N       7.55       8.24       5.64
N       7.41       8.10      -5.74
N       6.90      11.94       3.31
Cl       4.74       6.68      -9.86
O       7.02      10.36      -5.78
O       8.41       6.10       5.64
O       7.82       5.83      -5.70
O       8.54       8.23      11.97
O       6.30       7.85      11.92
O       8.31       7.75     -12.05
O       6.08       8.19     -12.06
O       6.47      10.25       5.65
