18

N       4.02       2.24       7.08
O       8.07       0.76       2.58
O       5.22       2.01       7.35
O       3.06       1.97       7.82
C       3.77       2.81       5.77
C       1.57       4.17       6.16
C       4.98       2.68       2.36
C       2.67       3.56       5.37
C       6.06       1.93       2.78
C       4.16       3.02       3.46
S       2.68       3.88       3.67
S       6.11       1.66       4.50
O       0.53       4.48       5.48
O       7.03       1.52       0.69
O       1.77       4.37       7.39
C       4.64       2.52       4.69
H       4.81       2.94       1.32
C       7.13       1.36       1.95
