60

O       2.55      18.03      14.27
O       4.03      18.28      15.98
O      13.95      18.48      14.15
O      12.27      18.44      15.69
O       2.37      17.67       3.74
O       3.87      17.65       2.04
O      13.64      17.64       3.59
O      12.09      17.77       1.92
H       5.64      18.21       8.97
H      10.54      17.93       8.87
C       3.72      18.18      14.75
C      12.74      18.44      14.51
C       3.53      17.78       3.26
C      12.46      17.72       3.13
C       7.41      18.15      10.18
C       8.83      18.06      10.14
C       9.45      17.98       8.89
C       8.77      17.98       7.67
C       7.35      18.09       7.69
C       6.73      18.16       8.95
C       4.59      19.06       5.20
C       4.65      18.01       4.26
C       5.71      17.09       4.37
C       6.46      17.04       5.56
C       6.48      18.11       6.47
C       5.58      19.17       6.20
C      10.34      16.72       6.12
C       9.62      17.89       6.44
C       9.84      19.02       5.61
C      10.74      18.97       4.53
C      11.39      17.78       4.20
C      11.15      16.64       4.98
C       5.73      19.32      11.70
C       6.59      18.23      11.43
C       6.57      17.19      12.39
C       5.79      17.25      13.56
C       4.83      18.25      13.72
C       4.86      19.31      12.81
C       9.95      19.31      12.03
C       9.76      18.11      11.32
C      10.62      17.03      11.65
C      11.58      17.14      12.67
C      11.71      18.33      13.40
C      10.91      19.43      13.05
Br       5.66      20.78       7.19
Br       3.23      20.35       5.04
Br       7.30      15.40       5.99
Br       6.17      15.94       2.94
Br      11.93      15.01       4.42
Br      10.35      15.22       7.29
Br      11.18      20.54       3.55
Br       8.99      20.65       6.04
Br       3.83      20.86      13.24
Br       5.68      20.83      10.56
Br       6.10      16.02      14.96
Br       7.52      15.59      12.03
Br      11.24      21.08      13.91
Br       8.97      20.85      11.53
Br      12.74      15.70      13.09
Br      10.58      15.41      10.67
