26

C       1.07       9.59       3.39
C       9.66       9.62       3.36
C      -0.42       9.60       3.38
C       3.88       9.58       3.38
C       8.17       9.61       3.35
C       5.36       9.59       3.36
H       1.22       8.46       1.55
H       8.03       7.52       2.86
H       1.23      10.72       5.22
H       3.72      10.77       5.18
H       3.70       8.40       1.58
H       8.01      11.71       3.82
H       5.51      11.70       3.85
H       5.54       7.50       2.85
O      10.24      10.76       3.41
O      10.24       8.48       3.32
C       1.77       8.94       2.36
O      -0.99       9.48       2.25
O      -1.00       9.74       4.51
C       7.47       8.43       3.07
C       1.78      10.23       4.41
C       3.17      10.25       4.39
C       3.16       8.91       2.38
C       7.46      10.79       3.62
C       6.06      10.78       3.64
C       6.08       8.43       3.06
