16

C       0.90      10.11      12.70
C       3.13       8.51      13.26
C       0.96       9.34      13.87
C       3.07       9.27      12.09
O       0.85       7.46      15.89
O       3.11       7.51      16.04
H       0.12       9.37      14.57
H       3.90       9.24      11.39
Cl      -0.51      11.09      12.50
C       2.02      10.84      10.50
Cl       4.53       7.52      13.46
C       2.01       7.77      15.46
O       0.92      11.10       9.92
O       3.18      11.16      10.07
C       1.97      10.07      11.79
C       2.06       8.54      14.17
