20

H       7.31       6.68       8.80
H       2.67       8.29       8.06
H       9.58       9.64       8.64
C       5.53       9.99       7.81
C       4.82       8.79       7.76
C       5.47       7.59       8.16
C       6.80       7.60       8.54
C       7.53       8.79       8.51
C       6.89      10.01       8.19
C       4.74       6.29       8.05
C       7.69      11.28       8.13
C       3.37       8.73       7.31
C       9.00       8.71       8.76
I       4.61      11.82       7.25
O       8.55      11.32       7.20
O       7.47      12.19       9.00
O       2.98       9.18       6.25
O       9.56       7.65       9.05
O       3.80       6.24       7.19
O       5.10       5.32       8.80
