29

C       1.23       9.36       3.69
C       1.23       9.90      10.46
C       0.94       8.57       4.81
H       2.26       9.41       1.78
C       0.94      10.69       9.34
H       2.26       9.85      12.37
H       2.82       5.88       3.85
C       1.53       7.30       4.88
C       1.53      11.96       9.28
H       2.82      13.38      10.31
H       0.81      10.36       3.56
H       0.82       8.90      10.59
C       0.07       9.08       5.92
C       0.07      10.18       8.24
C       0.91       9.63       7.08
H       1.34       6.64       5.73
H       1.34      12.62       8.43
H      -0.60       9.87       5.53
H      -0.60       9.39       8.62
H      -0.58       8.27       6.29
H      -0.58      10.99       7.86
H       1.57      10.43       6.70
H       1.57       8.84       7.46
N       2.61       7.62       2.76
N       2.61      11.64      11.40
C       2.05       8.84       2.69
C       2.05      10.42      11.46
C       2.35       6.87       3.84
C       2.35      12.39      10.31
