28

C       5.69       0.81      10.51
C      11.06       3.98       3.72
C       6.43       1.22       9.41
H      12.07       4.38       3.60
C      10.17       3.86       2.65
C       7.15       2.42       4.46
H      10.47       4.17       1.65
C       8.90       3.35       2.90
N      10.72       3.63       4.96
H       8.18       3.26       2.09
C       8.52       2.97       4.19
N      10.21       3.14       7.54
H       8.81       2.91      11.15
C       9.48       3.14       5.22
N       9.72       2.85       8.76
H       7.35       2.11      13.02
C       9.24       2.84       6.63
N       8.13       2.34       7.22
H       4.79       0.20      10.38
C       8.47       2.38       8.53
N       6.02       1.11      11.78
H       6.14       0.94       8.40
C       7.60       1.97       9.62
H       6.57       2.38       3.53
C       7.92       2.32      10.94
H       7.22       1.41       4.88
C       7.11       1.87      11.98
H       6.62       3.02       5.20
