28

O      11.71       0.00      13.01
H      15.00       0.00      15.23
H      10.70       0.00      24.61
H      10.70       0.00      15.23
H      15.00       0.00      24.61
H      15.01       0.00      17.73
H      10.69       0.00      22.11
H      10.69       0.00      17.73
H      15.01       0.00      22.11
C      12.85       0.00      20.53
C      12.85       0.00      19.31
C      12.85       0.00      13.59
C      12.85       0.00      26.25
C      14.07       0.00      17.18
C      11.63       0.00      22.66
C      11.63       0.00      17.18
C      14.07       0.00      22.66
C      12.85       0.00      15.08
C      12.85       0.00      24.76
C      14.06       0.00      15.79
C      11.64       0.00      24.05
C      11.64       0.00      15.79
C      14.06       0.00      24.05
C      12.85       0.00      17.90
C      12.85       0.00      21.95
O      13.99       0.00      26.83
O      13.99       0.00      13.01
O      11.71       0.00      26.83
