66

H       2.24      12.78      22.23
H       2.22       9.07      20.08
H       2.14      12.79      17.94
H       1.38      14.68      22.02
H       3.35      14.56      18.19
H       3.09      11.64      23.75
H       1.11       8.37      21.76
H       1.16       8.37      18.36
H       3.16      11.66      16.46
H       3.10      16.90      16.86
H       3.58      18.29      17.86
H       4.66      16.90      17.70
H       1.64      16.79      23.33
H       1.83      18.34      22.49
H       0.32      17.43      22.33
H       2.85      11.72      26.24
H       2.72      10.21      27.16
H       4.19      10.56      26.27
H       1.37       6.07      23.10
H       0.97       6.21      24.82
H      -0.18       6.77      23.60
H       0.06       6.66      15.77
H       1.67       5.98      15.85
H       0.83       6.41      17.36
H       4.24      10.28      13.68
H       2.63      10.70      13.13
H       3.47      11.78      14.27
C       2.15       7.96      13.83
C       2.54      18.74      20.07
C       1.97       7.93      26.31
C       2.17      10.83      21.31
C       2.22      12.23      21.29
C       2.25      12.96      20.09
C       2.20      12.24      18.88
C       2.18      10.84      18.86
C       2.18      10.15      20.08
C       1.95      16.58      21.21
C       1.86      15.19      21.18
C       2.34      14.43      20.09
C       2.91      15.12      19.02
C       2.99      16.52      18.99
C       2.50      17.24      20.09
C       2.61      10.66      23.78
C       2.55       9.99      25.00
C       2.00       8.69      25.02
C       1.50       8.09      23.85
C       1.55       8.81      22.66
C       2.12      10.09      22.59
C       1.62       8.82      17.48
C       1.59       8.10      16.28
C       2.15       8.70      15.12
C       2.71      10.00      15.19
C       2.70      10.67      16.41
C       2.16      10.11      17.58
C       3.61      17.20      17.79
C       1.42      17.33      22.40
C       3.10      10.65      26.24
C       0.89       6.71      23.85
C       1.01       6.71      16.32
C       3.29      10.73      14.00
O       1.20       7.12      13.61
O       3.09       8.19      13.00
O       1.61      19.34      19.44
O       3.50      19.32      20.67
O       1.02       8.16      27.13
O       2.91       7.09      26.52
