29

H       5.49       5.82       6.30
O       6.76       5.37      13.02
O       7.83       3.36      13.08
H       4.04       4.40       8.27
H       8.16       2.82       6.16
H       6.68       1.41       8.10
H       4.28       2.04       6.73
H       8.01       6.01       8.45
H       9.63       6.55       6.81
H       8.08       6.47       5.94
H       9.21       5.09       5.90
C       6.67       3.97      11.17
C       5.09       2.74       6.96
C       5.92       3.53       5.84
C       6.42       2.39       7.70
C       6.28       3.70       8.58
C       7.24       3.17       6.63
C       7.11       4.48       7.46
C       5.72       3.42       4.45
C       6.48       3.83       9.97
C       7.09       4.24      12.51
C       4.95       4.05       7.78
C       5.11       3.12       1.90
C       5.76       4.84       6.71
C       5.54       3.34       3.24
C       8.80       5.89       6.54
N       8.23       5.30       7.74
O       4.28       3.96       1.40
O       5.52       2.06       1.31
