30

H       7.46       5.64      10.75
H       3.86      -5.58       8.70
H       3.87       5.65       8.70
H       7.45      -5.59      10.75
H       7.55       3.15      10.79
H       3.77      -3.08       8.67
H       3.78       3.15       8.66
H       7.54      -3.09      10.79
N       5.67       5.72       9.73
H       4.78       1.26       7.76
H       6.54       1.26      11.69
H       6.54      -1.20      11.69
H       4.78      -1.20       7.76
N       5.65      -5.66       9.73
C       6.67       5.04      10.31
C       4.65      -4.98       9.15
C       4.66       5.04       9.14
C       6.66      -4.98      10.31
C       6.70       3.65      10.33
C       4.62      -3.59       9.13
C       4.63       3.65       9.12
C       6.69      -3.59      10.33
C       5.66       2.92       9.73
C       5.66      -2.86       9.73
C       5.15       0.72       8.63
C       6.17      -0.66      10.82
C       6.17       0.73      10.82
C       5.15      -0.67       8.64
C       5.66      -1.39       9.73
C       5.66       1.45       9.73
