30

C       5.53       1.04       8.74
C      10.88      -0.97       8.37
O       9.24      -5.98       8.52
O       7.18       6.11       8.48
O       6.98      -5.94       8.83
O       9.46       6.05       8.54
H       7.20      -0.71      10.66
H       9.22       0.81       6.45
H       9.53       0.91      10.44
H       6.89      -0.81       6.68
H       4.81       0.21       8.82
H       5.41       1.68       9.63
H       5.28       1.65       7.86
H      11.62      -0.16       8.29
H      11.12      -1.58       9.26
H      10.98      -1.62       7.49
C       8.12      -5.39       8.67
C       8.31       5.51       8.50
C       8.94       0.51       9.60
C       7.48      -0.41       7.51
C       7.65      -0.35       9.73
C       8.77       0.46       7.39
C       8.15      -3.95       8.66
C       8.27       4.06       8.48
C       9.49      -0.42       8.47
C       6.93       0.52       8.65
C       8.19      -1.32       8.59
C       8.23       1.43       8.52
C       8.16      -2.73       8.63
C       8.26       2.84       8.49
