17

H       1.76       2.32       8.98
O       1.51       5.21       8.98
C       0.68       2.38       9.11
C      -0.14       3.51       9.18
H      -1.67       5.56       8.82
O      -1.03       6.68       6.24
N      -1.39       1.66       9.34
C       0.29       4.90       9.02
H      -1.14       7.87       8.78
N      -0.68       5.84       8.88
C      -0.34       7.18       8.47
H       0.60       7.49       8.96
N      -0.08       1.27       9.20
C      -1.44       3.00       9.33
H      -2.39       3.52       9.41
O       0.76       8.03       6.51
C      -0.18       7.30       6.95
