26

H       2.80      13.90       1.80
H       2.11      14.51       0.28
H       3.65      16.27       0.31
H       4.34      15.64       1.81
H       4.55      15.49      -1.92
H       5.87      14.33      -2.00
H       3.01      13.73      -1.94
H       4.34      12.58      -2.01
H       4.70      12.20       1.71
H       5.33      11.67       0.16
H       6.88      13.42       0.19
H       6.23      13.96       1.73
O       1.49      12.16      -0.62
O       2.85      10.80       0.59
O       6.23      16.99      -0.86
O       7.13      16.16       1.05
C       2.58      11.90      -0.01
C       6.32      16.11       0.07
C       3.05      14.21       0.77
C       4.07      15.37       0.78
C       5.35      14.95       0.02
C       4.96      14.60      -1.43
C       3.94      13.44      -1.45
C       3.63      12.99       0.00
C       4.93      12.54       0.69
C       5.95      13.71       0.70
