26

H       1.35      13.96       8.22
H       5.93      13.94       6.92
H       2.04      13.77       3.88
H       1.64      13.77       6.29
H       5.24      13.69      11.26
H       5.63      13.72       8.85
O       1.83      13.73      13.19
O       4.10      13.77      13.24
O       5.44      13.80       1.95
O       3.17      13.85       1.90
C       2.99      13.76      12.62
C       4.28      13.83       2.52
F       0.75      13.91      10.66
F       6.53      13.93       4.48
C       3.10      13.79      11.14
C       4.17      13.84       4.01
C       2.04      13.86      10.23
C       2.23      13.89       8.85
C       5.24      13.89       4.92
C       5.04      13.90       6.29
C       2.88      13.81       4.57
C       2.67      13.81       5.93
C       4.39      13.75      10.58
C       4.61      13.77       9.21
C       3.53      13.84       8.30
C       3.75      13.85       6.84
