28

H       5.35      10.67      15.51
H       5.50      10.72      20.14
H       5.69      10.50      13.04
H       5.87      10.60      22.61
C       6.22       8.47      24.16
C       6.00       8.34      11.52
C       5.48       9.70      15.03
C       5.59       9.76      20.65
C       5.66       9.61      13.66
C       5.80       9.69      22.01
C       5.83       8.37      13.01
C       5.95       8.47      22.69
C       5.81       7.22      13.81
C       5.85       7.29      21.92
C       5.63       7.30      15.19
C       5.63       7.35      20.55
C       5.47       8.54      15.84
C       5.52       8.58      19.87
C       5.39       8.59      17.24
C       5.40       8.60      18.46
O       6.09       9.59      24.76
O       6.28       9.45      10.96
O       6.57       7.37      24.70
O       5.82       7.23      10.94
F       5.98       5.98      13.30
F       5.95       6.06      22.46
F       5.63       6.16      15.91
F       5.55       6.20      19.85
