76

H       4.16      15.36      27.14
H       6.90       9.18      29.90
H       7.65      13.44      25.50
H       4.15      11.71      32.06
H       2.99      10.19      28.36
H       3.73       9.07      29.54
H       3.40       8.49      26.55
H       4.09       7.39      27.74
H       1.86       7.33      28.97
H       1.69       6.79      27.29
H       1.17       8.42      27.74
H       7.70      15.80      27.73
H       8.46      14.70      28.90
H       7.36      17.49      29.54
H       8.15      16.41      30.70
H      10.31      16.53      29.39
H       9.76      18.16      29.83
H       9.52      17.57      28.18
H       3.67      12.73      25.51
H       3.33      11.19      26.36
H       4.50      11.43      23.54
H       4.20       9.91      24.41
H       1.72      10.49      24.52
H       2.29      10.40      22.84
H       2.04      11.98      23.60
H       8.15      13.63      30.96
H       7.76      12.16      31.88
H       7.29      15.04      32.84
H       6.90      13.58      33.76
H       9.34      12.93      33.82
H       9.13      14.56      34.48
H       9.76      14.35      32.84
C       5.97      17.17      23.19
C       5.53       7.74      34.14
C       4.91      16.17      25.29
C       6.31       8.50      31.85
C       4.94      15.30      26.38
C       6.30       9.39      30.78
C       5.93      14.32      26.47
C       5.52      10.55      30.85
C       6.90      14.23      25.47
C       4.75      10.80      31.99
C       6.90      15.14      24.42
C       4.75       9.88      33.04
C       5.92      16.16      24.30
C       5.54       8.72      33.00
C       5.54      12.02      27.34
C       5.93      12.86      29.98
C       5.36      11.11      28.40
C       6.10      13.77      28.92
C       5.57      11.52      29.73
C       5.89      13.36      27.60
C       3.72       9.36      28.48
C       3.34       8.18      27.60
C       1.94       7.66      27.92
C       7.74      15.53      28.79
C       8.14      16.72      29.64
C       9.50      17.27      29.23
C       3.97      11.67      25.60
C       3.84      10.95      24.28
C       2.39      10.95      23.79
C       7.48      13.22      31.73
C       7.61      14.00      33.03
C       9.04      13.96      33.57
Cl       3.58      17.28      25.24
Cl       7.29       7.08      31.70
Cl       8.12      14.91      23.20
Cl       3.79      10.25      34.43
O       4.87      17.48      22.65
O       6.65       7.49      34.69
O       7.11      17.63      22.89
O       4.41       7.26      34.47
O       5.03       9.82      28.07
O       6.44      15.07      29.24
O       5.35      11.61      26.04
O       6.11      13.29      31.27
