26

C      13.61       7.85       3.11
C      12.66       7.28       3.93
C      11.57       6.64       3.30
C      11.48       6.62       1.92
C      12.48       7.26       1.15
C       9.56       5.50       7.30
C       9.49       5.43       5.91
C       8.40       4.81       5.28
H      14.49       8.35       3.52
H      12.74       7.30       5.02
H      10.63       6.13       1.45
H      10.40       6.00       7.77
H       8.33       4.75       4.20
C       7.42       4.27       6.10
N      13.54       7.85       1.76
N      10.50       6.00       3.98
N      10.58       6.05       5.24
C       8.50       4.95       8.07
N       7.46       4.33       7.46
H       6.55       3.76       5.69
N      12.41       7.29      -0.20
N       8.51       5.02       9.42
H      12.98       7.97      -0.71
H      11.58       6.93      -0.65
H       7.63       4.87       9.93
H       9.23       5.56       9.87
