28

C       0.75      -2.44      12.95
C       1.71      -3.28      12.38
C       2.14      -3.06      11.07
H      -1.64       2.86      10.24
C       1.55      -2.06      10.30
H      -0.19       1.32      11.56
C      -2.68       2.42       7.76
H      -0.23      -1.49       8.29
C       0.27      -2.72      14.32
H      -1.61       0.09       6.96
C       3.26      -3.89      10.52
H      -0.54      -0.74      12.66
O      -3.34       3.29       8.39
H       2.13      -4.09      12.97
H       1.88      -1.93       9.27
O      -2.79       2.15       6.49
O       3.48      -3.85       9.27
O       3.94      -4.56      11.38
O      -0.32      -1.84      15.04
C      -1.72       1.57       8.52
O       0.39      -3.90      14.80
C      -1.31       1.91       9.81
C      -0.51       1.04      10.55
C      -0.13      -0.21      10.03
C      -0.50      -0.52       8.71
C      -1.28       0.35       7.96
C       0.57      -1.21      10.85
C       0.20      -1.39      12.20
