90

H       5.88       5.67      11.30
H       5.17       5.53       7.24
H       6.88       3.00      13.53
H       3.43      -1.21       8.94
H       6.19       4.56      13.04
H       8.80       3.33      11.98
H       8.14       4.85      11.41
H       8.35       5.84      13.72
H       9.91       5.27      13.11
H       9.03       4.31      14.32
H       6.18       2.58       5.20
H       6.47       4.17       5.96
H       3.83       3.18       4.73
H       4.02       4.74       5.53
H       7.63      -1.32       9.86
H       5.76       5.44       3.85
H       4.25       4.98       3.03
H       5.63       3.85       3.05
H       2.98       0.23       7.12
H       2.34       1.90       7.05
H       1.22      -0.33       8.85
H       0.65       1.34       8.79
H       0.01       1.06       6.36
H      -0.81      -0.15       7.37
H       0.59      -0.62       6.39
H       6.78      -5.64      11.14
H       9.82       1.51      10.42
H       9.35      -0.12       9.89
H       8.47       1.20      12.52
H       8.08      -0.45      12.04
H      10.59      -1.00      12.01
H      10.04      -0.46      13.61
H      10.93       0.66      12.55
H       9.00      -2.71      11.29
H       8.49      -4.42      11.25
H       8.18      -2.53      13.65
H       4.28      -5.72       7.87
H       7.72      -4.23      13.63
H      10.15      -4.86      13.17
H       9.97      -3.99      14.70
H      10.59      -3.15      13.27
H       2.15      -3.04       6.71
H       2.53      -4.58       7.52
H       3.85      -3.46       4.98
H       4.39      -4.94       5.78
H       2.13      -6.00       5.40
H       2.86      -5.48       3.87
H       1.56      -4.52       4.60
C       5.76       5.02      10.43
C       5.34       4.95       8.13
C       5.85       3.63      10.50
C       5.40       3.55       8.14
C       5.61       2.86       9.35
C       4.42       0.69       9.07
C       6.76       0.64       9.68
C       4.37      -0.70       9.12
C       6.73      -0.75       9.67
C       5.53      -1.44       9.41
C       5.60       1.39       9.38
C       6.26      -3.65      10.40
C       4.72      -3.69       8.55
C       6.25      -5.04      10.40
C       4.80      -5.09       8.57
C       5.50      -2.92       9.45
C       6.82       3.72      12.70
C       8.21       4.20      12.29
C       8.91       4.95      13.42
C       5.70       3.40       5.76
C       4.55       3.98       4.95
C       5.08       4.60       3.65
C       2.46       1.01       7.70
C       1.10       0.54       8.18
C       0.17       0.19       7.01
C       9.03       0.74      10.50
C       8.85       0.33      11.96
C      10.17      -0.14      12.56
C       8.28      -3.44      11.72
C       8.44      -3.51      13.22
C       9.86      -3.90      13.61
C       2.95      -3.77       6.90
C       3.51      -4.31       5.58
C       2.46      -5.12       4.82
N       5.50       5.64       9.27
N       5.56      -5.73       9.48
O       6.14       2.97      11.66
O       5.29       2.80       7.01
O       3.31       1.45       8.79
O       7.88       1.38       9.92
O       6.96      -2.97      11.36
O       3.93      -3.03       7.66
