30

H      11.59       6.85       9.99
H      10.74       3.80      12.94
H      10.20       4.75       5.24
H       7.73       1.74       7.14
H      13.35       0.33       6.77
H      13.35       0.07      11.10
H      11.08       1.24       7.10
H       9.67       4.93       8.79
H      12.70       2.65      10.84
C      11.37       6.27      10.88
C      11.18       4.89      11.02
C      10.97       4.71      12.39
C       9.44       4.02       5.53
C       9.35       3.23       6.68
C       8.19       2.48       6.49
C      13.49       0.08       7.82
C      12.93       0.68       8.96
C      13.51      -0.03      10.03
C      12.00       1.80       8.97
C      11.12       1.99       7.89
C      10.29       3.11       7.81
C      10.33       4.06       8.83
C      11.17       3.88       9.95
C      12.00       2.75      10.01
N      11.02       5.90      13.03
N      11.29       6.87      12.09
N       7.62       2.80       5.31
N       8.40       3.76       4.71
N      14.35      -0.98       9.55
N      14.34      -0.90       8.18
