19

C       5.47       1.56       4.92
C       3.22       3.86       3.23
C       4.37       0.81       5.34
C       4.31       4.60       2.81
C       3.63       2.75       4.00
C       5.03       2.66       4.16
C       6.91       1.26       5.23
H       2.20       4.13       2.97
S       2.83       1.45       4.80
S       5.84       3.95       3.35
H       7.08       1.23       6.32
H       7.56       2.02       4.78
H       7.20       0.27       4.85
C       4.35      -0.41       6.14
C       4.30       5.81       1.99
O       3.20      -0.90       6.42
O       5.48      -0.89       6.49
O       5.45       6.32       1.71
O       3.16       6.26       1.62
