30

H       2.42       7.55       4.82
H       2.23       7.71       2.37
H       6.45       6.45       4.58
H       1.96       6.28      -4.60
H       5.98       7.42      -4.84
H       6.15       7.67      -2.39
H       7.83       7.79       0.35
H       2.09       7.74      -0.28
C       3.29       7.35       4.19
C       3.19       7.45       2.80
C       4.32       7.19       2.00
C       5.51       6.83       2.67
C       5.54       6.73       4.06
C       4.23       7.27       0.59
C       4.15       7.24      -0.62
C       4.08       7.12      -2.03
C       2.89       6.72      -2.69
C       2.87       6.59      -4.07
C       5.11       7.22      -4.21
C       5.20       7.37      -2.83
S       6.99       6.42       1.76
S       1.45       6.29      -1.75
N       4.44       6.99       4.80
N       3.97       6.84      -4.81
O       7.32       7.89       1.20
O       8.00       6.02       2.70
O       6.65       5.57       0.65
O       1.28       7.67      -0.84
O       0.29       6.27      -2.58
O       1.79       5.22      -0.86
