48

O      10.71       1.88       1.36
H       6.08      11.03      10.45
H       7.29       2.50       3.32
H      10.22      10.73      11.53
H      11.34       3.77       2.71
H       8.55      11.28       4.59
H       9.02       2.93       9.14
H       8.81       4.63      10.98
H       8.51       9.52       2.79
H       6.44       9.41       8.60
H       6.96       4.34       4.98
H      10.59       9.08       9.69
H      11.04       5.59       4.39
H       8.61      10.63       6.96
H       9.07       3.62       6.80
H       8.66       7.03      10.42
H       8.67       7.15       3.39
C       8.69       8.11       7.93
C       8.84       6.13       5.86
C       7.07      10.61      10.27
C       8.10       3.19       3.56
C       9.40      10.44      10.88
C      10.39       3.91       3.21
C       8.58      10.23       4.86
C       8.95       3.98       8.90
C       8.83       4.95       9.94
C       8.58       9.24       3.84
C       7.27       9.70       9.23
C       7.92       4.22       4.48
C       9.60       9.51       9.85
C      10.21       4.92       4.15
C       8.13      10.99      11.11
C       9.34       3.02       2.92
C       8.62       9.87       6.18
C       8.97       4.37       7.59
C       8.75       6.29       9.63
C       8.67       7.91       4.17
C       8.54       9.13       9.01
C       8.98       5.09       4.80
C       8.68       8.49       6.57
C       8.87       5.74       7.22
C       8.78       6.74       8.27
C       8.74       7.49       5.53
C       7.88      11.98      12.22
C       9.58       1.90       1.95
O       6.67      12.35      12.41
O       8.66       1.04       1.76
O       8.89      12.40      12.88
