24

H       4.31      -2.98       9.80
H       8.92      -4.02      11.60
H       8.92      -8.04       9.28
H       4.31      -7.00       7.48
C       5.97      -2.28      11.06
C       7.26      -2.58      11.57
C       7.26      -8.73       8.01
C       5.97      -8.44       7.51
C       5.30      -3.17      10.20
C       7.93      -3.77      11.23
C       7.93      -7.85       8.88
C       5.31      -7.25       7.84
C       5.97      -4.34       9.87
C       7.27      -4.63      10.38
C       7.27      -6.68       9.20
C       5.97      -6.38       8.69
N       5.61      -1.07      11.58
N       7.63      -1.52      12.35
N       7.63      -9.94       7.49
N       5.61      -9.49       6.72
N       6.62      -0.65      12.34
N       6.62     -10.36       6.73
O       5.32      -5.22       9.03
O       7.91      -5.80      10.04
