22

H       3.23       8.77       2.56
H      -0.21      10.51       6.33
H       1.35      11.06       7.00
H       1.63       8.86       8.19
H       0.05       8.32       7.59
C       2.34       5.92       6.22
C       2.02      11.06       3.40
C       2.09       9.76       4.11
C       2.25       7.21       5.46
C       1.54       9.55       5.38
C       2.80       7.44       4.18
C       1.65       8.32       6.04
C       2.75       8.67       3.53
C       0.83      10.21       6.55
C       0.98       8.83       7.31
N       3.47       6.33       3.48
O       3.32       5.82       7.02
O       1.38       5.10       6.09
O       2.95      11.31       2.56
O       1.03      11.82       3.67
O       3.33       5.19       3.95
O       4.13       6.60       2.46
