20

O       9.24       9.04       7.57
H       8.41      14.42       3.44
H      11.38      13.92       2.83
H      12.45      12.11       3.93
H      12.45      10.20       5.55
H       8.29      10.89       6.35
H       8.28      12.79       4.76
C       9.52      15.66       2.06
C       9.40      14.54       3.01
C      10.42      13.72       3.32
C      10.37      12.59       4.24
C      11.54      11.84       4.46
C      11.55      10.78       5.36
C      10.37      10.44       6.05
C       9.20      11.17       5.81
C       9.20      12.23       4.92
C      10.36       9.32       7.03
O       8.43      16.29       1.82
O      10.67      15.91       1.55
O      11.47       8.73       7.27
