30

H       5.14       1.21       8.63
H       8.16      -0.45       5.65
H       8.90       3.86       6.98
H       6.19      -3.20       9.19
H       8.95       1.42       6.61
H       5.97      -0.74       9.36
H       4.29       3.08       9.40
H       4.88       4.55      11.10
H       4.48       5.69       9.77
H       6.16       5.26      10.10
H       8.87      -2.33       4.75
H      10.47      -3.89       5.39
H       9.14      -4.95       4.82
H       9.34      -4.62       6.55
C       5.99       1.76       8.23
C       7.70      -1.02       6.45
C       6.05       3.16       8.47
C       7.84      -2.43       6.45
C       8.08       3.24       7.32
C       6.61      -2.55       8.42
C       8.09       1.87       7.10
C       6.47      -1.18       8.50
C       7.01       1.10       7.58
C       7.04      -0.38       7.48
C       5.14       4.87      10.08
C       9.43      -4.18       5.55
N       7.09       3.89       7.99
N       7.27      -3.19       7.42
N       5.05       3.73       9.19
N       8.57      -3.00       5.44
