17

C      18.50       8.20      25.69
C      18.47       9.43      29.09
C      18.49       6.88      26.15
C      18.48      10.73      28.62
C      18.48       8.50      28.03
C      18.50       9.12      26.77
H      18.46       9.19      30.16
C      18.49       5.64      25.38
O      18.54       5.74      24.11
O      18.46      13.06      28.74
O      18.45      11.85      30.68
O      18.44       4.55      26.07
S      18.47       6.78      27.90
S      18.50      10.84      26.89
C      18.46      11.97      29.41
O      18.51       8.53      24.37
H      18.49       9.50      24.28
