20

C       4.76      -5.75      24.96
C       5.75      -4.76      24.96
H       4.34      -2.55      28.56
C       2.68      -3.80      27.61
C       3.80      -2.68      27.61
H       2.55      -4.34      28.56
H       3.48      -1.69      27.26
H       1.69      -3.48      27.26
O       6.53      -1.59      26.58
O       1.59      -6.53      26.58
H       4.86      -6.62      24.31
H       6.62      -4.86      24.31
O       7.68      -2.72      24.96
O       2.73      -7.68      24.97
C       6.70      -2.56      25.77
C       2.57      -6.70      25.77
C       3.53      -4.52      26.59
C       4.52      -3.53      26.59
C       3.62      -5.65      25.78
C       5.65      -3.62      25.78
