26

O      20.52      16.09       9.70
O      24.34      20.99       5.81
H      20.02      19.08       7.51
O      19.41      18.08       9.72
H      21.97      21.81       7.26
H      19.46      22.02       5.49
O      25.06      18.91       5.24
H      19.46      21.41       7.15
H      20.29      23.64       7.99
H      18.79      23.85       7.06
H      20.36      24.26       6.33
O      21.58      20.35       5.82
H      21.93      22.36       5.57
C      21.43      21.72       6.30
C      19.97      22.11       6.46
C      19.85      23.55       6.99
C      21.48      17.96       8.62
C      21.08      18.86       7.63
C      22.00      19.46       6.78
C      23.37      19.13       6.89
C      20.39      17.33       9.43
C      24.34      19.72       5.90
C      23.79      18.27       7.92
C      22.85      17.69       8.80
Br      25.64      17.96       8.17
Br      23.45      16.66      10.28
