27

C       6.86      13.58      19.63
H      10.04      12.20      22.71
C       8.54      13.48      23.56
H       5.29      14.96      19.92
N       3.80      14.07      15.44
C       9.13      13.38      24.94
O       8.52      14.11      25.84
H       7.36      12.92      18.92
H       5.27      12.72      14.84
H       9.05      12.29      20.41
C       7.39      14.24      23.32
H       6.53      12.79      16.92
C       9.14      12.78      22.50
O      10.11      12.65      25.17
C       5.79      14.29      19.21
C       7.43      13.60      20.97
C       4.93      13.36      15.65
H       5.93      14.88      21.89
C       8.59      12.84      21.23
C       5.17      14.22      17.90
H       2.46      15.44      16.21
H       6.92      14.76      24.15
C       4.01      14.98      17.65
C       5.63      13.41      16.85
C       6.84      14.31      22.04
H       3.60      15.63      18.42
C       3.36      14.88      16.43
