28

H       9.05       7.50      15.13
H       4.09       7.50      15.11
C       3.33      11.91      15.26
C       9.80      11.91      15.10
C       3.39       3.06      14.96
C       9.76       3.07      15.19
C       7.28       8.73      15.13
C       5.86       8.73      15.14
C       5.17       7.50      15.11
C       5.86       6.28      15.09
C       7.28       6.28      15.12
C       7.96       7.50      15.13
C       5.11       5.08      15.04
C       4.39       4.10      14.99
C       8.76       4.11      15.18
C       8.03       5.08      15.14
C       5.10       9.92      15.18
C       4.33      10.87      15.24
C       8.80      10.88      15.10
C       8.04       9.92      15.12
O       2.13      11.50      15.28
O       3.73      13.12      15.24
O      11.01      11.49      15.09
O       9.42      13.12      15.14
O       2.19       3.49      14.88
O       3.77       1.85      15.03
O      10.96       3.47      15.35
O       9.38       1.86      15.02
