13

H       4.07      14.91      11.97
N       2.03      15.36       9.31
C       2.55      16.78      13.31
C       2.38      16.27      11.91
H       0.60      17.46      11.54
C       1.31      16.73      11.13
O       3.72      17.06      13.72
C       1.19      16.27       9.83
O       1.50      16.85      14.02
H       0.40      16.63       9.17
C       3.02      14.87      10.08
H       3.65      14.10       9.62
C       3.25      15.31      11.38
