16

C      24.80       6.85      12.80
C      23.78       7.51      11.91
C      23.87       8.80      11.55
C      22.85       9.42      10.68
C      21.73       8.55      10.21
C      21.65       7.25      10.57
C      22.67       6.64      11.44
C      20.70       9.21       9.35
H      24.68       9.46      11.88
H      20.84       6.60      10.24
O      24.57       6.91      14.05
O      25.78       6.30      12.21
O      22.91      10.60      10.34
O      22.61       5.45      11.77
O      20.89       9.15       8.10
O      19.74       9.76       9.97
