48

H       5.27       4.09       9.28
H      11.28      -4.09       9.28
C       4.80       3.63      11.27
C      11.75      -3.63      11.27
O       4.06       3.82      12.24
C       5.89       2.62      11.33
O      12.49      -3.82      12.24
C      10.65      -2.62      11.33
C       6.85       2.45      10.32
C       9.69      -2.45      10.32
H       2.22       6.71       7.03
H      14.33      -6.71       7.03
C       7.79       1.43      10.43
C       8.76      -1.43      10.43
H       4.07       5.15       7.62
H      12.47      -5.15       7.62
C       7.80       0.56      11.54
C       8.75      -0.56      11.54
H       2.82       5.50      11.75
H      13.73      -5.50      11.75
C       6.87       0.77      12.57
C       9.68      -0.77      12.57
H       1.08       7.07      11.00
H      15.47      -7.07      11.00
C       2.40       6.42       8.06
C      14.15      -6.42       8.06
C       5.92       1.78      12.46
C      10.63      -1.78      12.46
H       6.89       3.10       9.45
H       9.65      -3.10       9.45
C       3.42       5.55       8.39
C      13.13      -5.55       8.39
N       1.56       6.96       8.98
N      14.98      -6.96       8.98
H       8.55       1.29       9.65
H       8.00      -1.29       9.65
C       3.61       5.18       9.75
C      12.94      -5.18       9.75
N       4.62       4.28      10.06
N      11.93      -4.28      10.06
H       6.85       0.08      13.42
H       9.70      -0.08      13.42
C       2.74       5.75      10.70
C      13.80      -5.75      10.70
H       5.16       1.93      13.23
H      11.39      -1.93      13.23
C       1.75       6.62      10.27
C      14.79      -6.62      10.27
