26

C      19.57      15.07      16.00
C      21.07      15.08      16.01
C      21.79      14.79      17.17
C      23.18      14.87      17.18
C      23.89      15.25      16.03
C      23.16      15.53      14.86
C      21.77      15.44      14.85
C      25.36      15.37      16.05
C      26.05      15.70      17.23
C      27.44      15.81      17.25
C      28.18      15.59      16.08
C      27.50      15.25      14.90
O      18.98      14.86      17.11
C      26.12      15.15      14.88
C      29.68      15.67      16.09
H      25.61      14.85      13.96
H      21.24      14.51      18.07
H      23.72      14.61      18.09
H      23.67      15.86      13.96
H      21.20      15.67      13.94
H      25.49      15.91      18.14
O      30.26      15.47      14.97
H      27.97      16.06      18.16
O      30.25      15.92      17.19
H      28.09      15.06      14.00
O      19.00      15.31      14.89
