22

O      18.45      10.41      11.26
H      15.19       8.91       9.28
H      14.37       7.50       9.99
H      13.55       9.07       9.95
H      12.68       6.66      11.49
H      11.88       8.24      11.47
H      11.39       7.01      12.67
C      12.20       7.29      15.36
C      13.19       7.91      14.48
C      15.27       9.00      13.78
C      16.34       9.53      11.64
C      17.37      10.01      10.70
C      15.11       8.92      11.42
C      14.53       8.59      10.08
C      14.48       8.61      12.68
C      13.26       7.97      13.09
C      12.24       7.44      12.14
S      14.58       8.61      15.29
S      16.75       9.73      13.33
O      12.49       7.26      16.60
O      11.13       6.82      14.83
O      17.13      10.01       9.44
