18

H       4.92       2.33       7.17
H       3.60       3.19       0.99
O       4.04       2.75       7.10
O       4.46       2.74       1.05
C       3.74       2.95       5.79
C       1.48       4.12       6.17
S       2.44       3.68       3.63
S       6.06       1.77       4.51
O       0.47       4.58       5.51
O       6.97       1.50       0.70
O       1.62       4.12       7.44
O       7.98       0.78       2.62
C       4.77       2.53       2.35
C       2.56       3.57       5.37
C       5.95       1.90       2.77
C       3.96       2.90       3.46
C       4.54       2.56       4.69
C       7.04       1.36       1.97
