16

C      24.47      12.21      18.29
C      23.23      12.74      20.50
O      25.45      11.65      18.89
C      23.38      12.74      19.12
O      24.33      12.35      17.03
C      21.27      13.81      19.80
C      22.02      13.36      20.89
C      20.06      14.44      20.19
C      19.91      14.44      21.57
Br      24.42      12.05      21.78
Br      18.87      15.13      18.91
C      18.83      14.98      22.40
O      17.85      15.53      21.80
O      18.97      14.85      23.67
S      22.04      13.49      18.30
S      21.26      13.69      22.40
