28

O      11.77       0.74       1.33
O      10.51      -1.14       1.40
O      13.88      -3.45       6.87
O      15.16      -4.56       5.36
C      11.53      -0.46       1.72
O      13.51      -1.38      -1.30
O      14.35      -0.27       0.49
O      14.98      -6.29      -0.35
O      15.01      -6.96       1.82
H      11.72      -0.07       4.35
H      14.34      -3.85      -0.63
H      14.47      -5.25       3.43
H      12.88      -1.51       6.03
C      14.24      -3.71       5.68
C      13.61      -2.48       0.85
C      14.07      -3.70       0.42
C      14.30      -4.74       1.36
H      14.42       0.42      -0.20
C      14.18      -4.49       2.71
C      13.70      -3.24       3.19
C      13.26      -2.27       2.23
C      12.47      -1.16       2.67
C      12.33      -0.91       4.02
C      12.95      -1.75       4.97
C      13.60      -2.91       4.59
H      15.34      -7.76       1.35
C      13.76      -1.35      -0.11
C      14.79      -6.04       0.83
