26

N       2.32      12.79      11.85
N      -0.66      13.08      11.69
O      -2.88      10.32       8.61
O      -2.89       8.05       8.64
H       3.21      11.00      10.19
H      -1.76      11.15      10.35
O       4.04       7.89       8.59
O       4.11      10.13       8.23
O       3.33      13.30      11.35
O       1.96      12.88      13.03
O      -1.77      12.82      12.17
O      -0.14      14.21      11.66
H       1.76       7.38       7.37
H      -0.75       7.46       7.45
C      -2.31       9.19       8.67
C       3.51       9.02       8.47
C       2.02       9.09       8.62
C       1.38      10.09       9.42
C       1.25       8.15       7.95
C       2.12      11.02      10.19
C       1.48      11.95      10.97
C      -0.81       9.16       8.73
C      -0.15       8.19       8.00
C      -0.06      10.12       9.48
C      -0.68      11.09      10.31
C       0.07      11.99      11.02
