18

C      -5.42      10.13      12.38
C      -6.39       9.03      14.33
C      -7.35       8.44      13.51
O      -2.75      11.43      17.42
O      -1.69      12.27      15.58
O      -8.31       8.28      10.01
O      -9.28       7.35      11.85
C      -2.61      11.61      16.17
C      -3.60      11.00      15.32
C      -4.44      10.49      14.60
C      -7.35       8.68      12.13
C      -6.38       9.53      11.57
C      -5.41       9.88      13.77
C      -8.39       8.05      11.26
H      -6.38       8.84      15.40
H      -8.10       7.77      13.93
H      -6.40       9.71      10.50
H      -4.67      10.79      11.95
