26

O       8.67      12.44      37.33
O       7.34      13.55      38.74
O       8.59      21.80      30.93
O       6.76      22.47      32.13
C       7.94      13.47      37.61
C       7.80      14.57      36.62
C       8.25      14.41      35.30
C       8.14      15.46      34.40
C       7.59      16.70      34.79
C       7.14      16.83      36.12
C       7.23      15.78      37.02
C       7.51      17.86      33.88
H       8.69      13.46      35.01
C       8.48      18.08      32.88
H       8.47      15.32      33.37
H       6.75      17.79      36.45
C       6.50      18.83      34.05
H       6.89      15.90      38.04
H       5.76      20.78      33.50
H       5.70      18.65      34.77
C       6.52      20.01      33.33
C       7.53      20.26      32.40
C       8.49      19.27      32.15
C       7.63      21.62      31.76
H       9.26      17.34      32.71
H       9.26      19.46      31.40
