32

H       1.56       1.03       7.82
H       5.11      -2.30      14.20
H       0.42      -0.90       8.89
H       6.26      -0.37      13.13
H       0.32      -2.61      10.67
H       6.35       1.34      11.35
C       3.17      -3.99      14.76
C       3.50       2.72       7.26
C       4.54       1.69       9.35
C       2.14      -2.96      12.67
C       3.48       1.76       8.42
C       3.20      -3.03      13.60
C       2.38       0.92       8.54
C       4.30      -2.19      13.48
C       2.31      -0.06       9.54
C       4.36      -1.21      12.48
C       3.37      -0.15      10.49
C       3.31      -1.12      11.53
C       4.48       0.75      10.42
C       2.19      -2.02      11.60
C       1.22      -0.98       9.62
C       5.46      -0.29      12.40
C       1.17      -1.92      10.61
C       5.51       0.65      11.41
C       5.66       2.56       9.31
C       1.01      -3.83      12.71
N       6.62       3.23       9.40
N       0.06      -4.50      12.62
O       4.30      -4.31      15.24
O       2.37       3.04       6.78
O       2.03      -4.35      15.18
O       4.64       3.08       6.84
