16

C       0.21      16.46      13.41
C      -0.62      18.48      14.47
O      -1.77      20.30      13.47
F       0.10      15.59      12.38
C       1.11      16.23      14.45
C       0.29      18.26      15.51
C      -0.64      17.57      13.42
O      -2.15      19.81      15.66
O       2.13      14.41      15.55
F      -1.52      17.71      12.40
C       1.13      17.15      15.51
C       2.01      15.03      14.45
O       2.55      14.75      13.33
F       0.39      19.13      16.54
C      -1.59      19.63      14.54
F       2.00      17.01      16.53
