20

H      -2.75      12.27       3.22
H       2.75       9.09       4.33
H       0.46      10.41       0.60
H      -0.46      10.94       6.95
C      -2.03      11.85       5.44
C       2.03       9.50       2.11
C      -1.00      11.26       4.59
C       1.00      10.10       2.96
C      -1.11      11.32       3.17
C       1.11      10.04       4.38
C      -0.12      10.75       2.36
C       0.12      10.61       5.19
O      -3.04      12.44       4.87
O      -1.91      11.78       6.72
O       1.91       9.58       0.83
O       3.04       8.92       2.68
O      -2.14      11.92       2.52
O       2.14       9.44       5.03
O      -0.31      10.86       1.03
O       0.31      10.50       6.52
