28

H       6.64      13.08      15.21
H       9.97      12.29      17.86
H      10.48      20.41      18.59
H      11.25      17.81      21.97
H       3.27      16.92      22.55
H       5.93      13.58      23.29
C       7.51      12.70      15.72
C       8.15      13.19      16.88
C       9.22      12.29      17.08
C      10.86      19.91      19.48
C      10.38      18.76      20.12
C      11.26      18.58      21.20
C       3.79      16.04      22.92
C       4.94      15.41      22.42
C       5.15      14.33      23.31
C       5.74      15.74      21.31
C       6.53      15.95      20.41
C       9.29      17.93      19.80
C       8.41      17.11      19.61
C       7.83      14.29      17.69
C       7.65      15.19      18.49
N       9.21      11.35      16.12
N       8.15      11.60      15.28
N      12.19      19.54      21.20
N      11.95      20.37      20.12
N       4.20      14.34      24.26
N       3.36      15.40      24.02
N       7.46      16.15      19.43
