20

H       4.36      14.77       6.86
O       2.81      16.82       9.83
O       6.32      10.64       8.31
O       1.60      15.56       8.35
O       7.53      11.89       9.79
H       6.75      14.64       8.44
H       2.38      12.81       9.71
H       5.24      15.43      10.71
H       3.89      12.02       7.43
H       4.76      12.68      11.28
C       4.95      14.67       9.99
C       4.18      12.78       8.16
C       5.77      14.25       8.72
C       3.36      13.21       9.42
C       5.48      12.73       9.02
C       3.65      14.73       9.12
C       4.66      13.16      10.30
C       4.47      14.29       7.84
C       2.61      15.79       9.11
C       6.52      11.67       9.03
