18

O      16.86       4.97       5.69
C      14.55       7.30       4.03
H      12.72       8.31       3.46
C      14.33       5.93       6.05
C      13.19       7.65       4.19
C      16.51       5.90       4.88
C      13.02       6.32       6.21
O      17.29       6.44       4.01
C      15.12       6.39       4.97
O      10.47       8.14       4.35
H      14.78       8.34       2.27
N      15.26       7.82       2.99
H      14.80       5.25       6.76
H      16.22       7.51       2.86
C      10.99       7.53       5.35
O      10.38       7.18       6.42
C      12.44       7.18       5.25
H      12.42       5.98       7.05
