22

C       1.60       1.84      17.52
C       2.31       0.64      17.37
H       3.39       0.67      17.26
C       1.61      -0.56      17.33
H       2.14      -1.50      17.20
C       0.21      -0.53      17.44
H      -0.35       2.68      17.88
C       0.21       1.76      17.70
H       0.90      -2.86      16.13
C      -0.59      -1.76      17.28
N      -0.48       0.62      17.66
H      -0.52      -4.87      15.88
C      -0.10      -2.86      16.57
H      -3.63      -3.14      18.02
N      -2.14      -4.08      16.93
C      -0.89      -3.99      16.42
H      -2.31      -1.03      18.38
C      -2.62      -3.03      17.62
O       1.60       4.23      17.53
C      -1.89      -1.86      17.82
O       3.52       3.22      17.10
C       2.29       3.15      17.40
