17

C      18.47      14.70       2.00
H      18.63       8.99       2.13
O      18.54      14.55       0.73
O      18.55       7.30       5.49
O      18.41      15.81       2.64
O      18.39       8.60       7.37
C      18.53       9.75       3.89
C      18.41      13.35       4.17
C      18.46       9.63       5.28
C      18.47      13.47       2.80
C      18.43      12.00       4.58
S      18.38      11.17       6.09
S      18.56      11.93       1.98
C      18.47       8.42       6.10
C      18.51      11.11       3.49
O      18.60       8.68       3.05
H      18.35      14.22       4.83
