36

C       2.88       7.61       6.43
C       2.54       9.31       3.85
C       3.51      11.29      -1.94
C       4.18      11.82      -3.02
C       3.15       9.93      -1.93
C       4.55      11.02      -4.13
C       4.11       9.69      -4.15
H       4.46      12.88      -3.02
C       3.42       9.15      -3.07
H       3.28      11.90      -1.07
H       6.36      13.34      -4.07
H       2.79      11.03       2.55
H       4.37       9.05      -5.00
H       1.77       7.36       0.57
H       2.80       9.86       4.75
H       2.79       8.60       6.86
N       2.66       9.25      -0.81
H       2.80       5.02       4.41
N       6.98      12.96      -6.04
N       6.67      12.02      -6.99
N       3.32       6.57       7.18
H       3.12       8.10      -3.06
H       1.71       6.19       2.76
N       3.31       5.46       6.40
N       2.61       9.96       0.25
H       5.36      10.35      -7.03
C       2.87       5.78       5.18
C       2.58       7.16       5.12
C       6.25      12.72      -4.95
C       5.44      11.59      -5.14
C       2.31       7.92       3.91
C       5.75      11.19      -6.45
C       1.95       7.25       2.72
C       1.97       7.90       1.49
C       2.32       9.26       1.43
C       2.54       9.97       2.62
