12

H       5.06       2.12      23.28
O       5.08      -0.50      22.41
C       4.16       1.59      22.92
H       2.52       2.99      23.22
C       3.83       3.74      21.68
C       3.11       2.59      22.37
C       4.63       0.58      21.88
O       3.92       3.61      20.40
O       2.23       1.97      21.48
O       4.57       0.81      20.65
O       4.35       4.68      22.34
H       3.74       1.04      23.78
