28

H       7.98       9.81      12.24
H       7.78      10.06      14.72
H      12.07       9.97      15.04
H       6.63      10.37      18.37
H      10.92      10.28      18.69
H      10.71      10.53      21.18
C      10.15       9.55      10.75
C       8.55      10.79      22.67
C      10.12       9.74      12.23
C       8.87       9.85      12.87
C       8.75       9.98      14.24
C       9.91      10.02      15.04
C      11.17       9.94      14.43
C      11.26       9.79      13.05
C       7.53      10.41      18.99
C       8.79      10.32      18.38
C       9.95      10.36      19.17
C       9.83      10.50      20.54
C       8.58      10.61      21.18
C       7.44      10.55      20.36
N       9.92      10.15      16.44
N       8.77      10.19      16.97
O      11.28       9.38      10.19
O       9.68      10.77      23.24
O       7.42      10.96      23.23
O       9.01       9.57      10.17
F      12.50       9.70      12.52
F       6.20      10.64      20.89
