16

H      24.08       4.16      21.24
C      23.70       5.86      19.97
C      24.53       5.02      20.73
C      25.89       5.29      20.82
C      22.23       5.63      19.87
C      24.25       6.97      19.31
O      21.70       4.71      20.59
O      21.60       6.40      19.07
H      23.59       7.62      18.74
C      25.61       7.23      19.40
H      26.55       4.64      21.41
C      26.44       6.39      20.15
C      27.91       6.67      20.21
O      28.59       6.04      21.08
H      26.05       8.09      18.89
O      28.35       7.52      19.37
