28

H       3.56       3.97       4.77
H       3.33       4.20       2.29
H       7.54       5.59       4.55
H       2.77       4.87      -4.63
H       6.73       6.55      -4.64
H       6.83       6.32      -2.15
C       4.68       5.90      -6.26
C       5.68       4.61       6.28
C       5.57       4.75       4.80
C       4.37       4.37       4.17
C       4.24       4.50       2.80
C       5.29       5.05       2.02
C       6.48       5.45       2.68
C       6.62       5.29       4.05
C       5.14       5.19       0.62
C       4.98       5.29      -0.58
C       4.88       5.43      -1.98
C       3.73       5.02      -2.70
C       3.66       5.18      -4.08
C       4.74       5.74      -4.77
C       5.89       6.14      -4.08
C       5.95       6.00      -2.70
Cl       7.76       6.16       1.77
Cl       2.41       4.28      -1.86
O       3.55       5.76      -6.82
O       4.61       4.31       6.90
O       6.83       4.79       6.82
O       5.78       6.18      -6.84
