46

H      13.92       0.17       8.19
H      11.61      -0.19       6.82
H       4.06      -1.39       8.03
H       6.39      -1.12       9.37
H       4.83      -1.29       4.12
H       2.52      -1.09       6.14
H       8.50      -1.04       5.18
H       6.28      -0.27       3.20
H      11.68      -1.20      13.02
H       9.49      -0.61      10.97
H      13.18      -0.20      12.09
H      15.45       0.14      10.05
H       8.85      -1.44       9.43
H       9.18      -0.05       6.71
C      12.71      -0.29       9.98
C      12.95      -0.10       8.61
C      11.76      -0.27       7.90
C      10.75      -0.58       8.83
C       5.28      -1.07       6.23
C       5.04      -1.19       7.60
C       6.25      -1.07       8.29
C       7.26      -0.86       7.35
C       9.51      -1.02      13.36
C      15.77       0.13      12.20
C       2.20      -1.29       3.99
C       8.42      -0.62       2.78
C       4.40      -1.20       5.11
C       3.05      -1.21       5.19
C       7.46      -0.83       4.95
C       7.22      -0.57       3.65
C      10.74      -1.00      12.52
C      10.54      -0.73      11.22
C      13.59      -0.14      11.09
C      14.93       0.08      11.01
C       9.37      -0.90       8.64
C       8.66      -0.58       7.52
N      11.35      -0.59      10.10
N       6.66      -0.87       6.08
O       8.39      -0.79      12.77
O       9.65      -1.24      14.60
O      17.05       0.11      12.01
O      15.21       0.13      13.35
O       0.94      -1.17       4.19
O       2.76      -1.44       2.85
O       9.51      -1.07       3.29
O       8.31      -0.18       1.59
