44

H       6.03      12.87      12.09
H      11.04      15.15      14.52
H      10.30      16.75      14.12
H      11.99      16.40      13.64
H       5.89      18.22      11.19
H       4.97      19.74      10.89
H       4.26      18.42      11.88
H      11.34      19.92      11.13
H      10.59      18.31      11.40
H      12.14      18.72      12.19
H       6.27      16.43      14.50
H       5.39      14.88      14.76
H       4.53      16.31      14.09
H      10.34      12.94      11.88
H       5.91      22.07      12.32
H      10.22      22.18      12.47
C       8.02      23.73      12.02
C       9.40      14.79      12.43
C       6.88      20.19      12.70
C       9.32      20.25      12.79
C       6.96      14.75      12.56
C       9.40      13.46      12.05
C       8.21      11.31      11.60
C       6.86      21.55      12.44
C       9.29      21.62      12.53
C       6.97      13.42      12.17
C       8.19      12.77      11.91
C       8.06      22.27      12.33
C       8.18      15.48      12.67
C       8.11      19.50      12.83
C       8.16      16.87      12.88
C       8.14      18.10      12.93
C      10.99      15.96      13.78
C       5.18      18.94      11.62
C      11.17      19.12      11.86
C       5.48      15.77      14.11
O       9.13      24.34      11.89
O      10.62      15.44      12.49
O       5.70      19.50      12.85
O      10.52      19.62      13.03
O       5.75      15.37      12.76
O       7.08      10.71      11.54
O       9.35      10.76      11.45
O       6.87      24.26      11.91
