77

H       9.35       5.97       2.95
H       9.41       2.91       6.02
H      22.34       5.98      -2.94
H      22.28       2.92      -6.01
H       9.33      -5.96      -2.93
H       9.38      -2.90      -6.00
H      22.27      -6.02       3.01
H      22.31      -2.87       5.99
H      12.97       0.64       3.68
H      14.71      -0.59       2.44
H      14.71       2.46      -0.59
H      12.98       3.70       0.65
H      18.69       3.71      -0.64
H      16.95       2.46       0.59
H      16.97      -0.58      -2.45
H      18.71       0.66      -3.68
H      12.97      -3.68      -0.63
H      14.71      -2.45       0.59
H      14.70       0.60      -2.44
H      12.95      -0.63      -3.67
H      18.70      -3.69       0.65
H      16.96      -2.45      -0.59
H      16.97       0.61       2.44
H      18.70      -0.63       3.69
C       9.18       5.33       3.81
C       9.87       4.16       4.20
C       9.20       3.76       5.38
C      22.51       5.34      -3.80
C      21.82       4.18      -4.19
C      22.48       3.77      -5.37
C       9.16      -5.32      -3.79
C       9.84      -4.15      -4.19
C       9.18      -3.75      -5.37
C      22.46      -5.36       3.84
C      21.81      -4.17       4.21
C      22.49      -3.75       5.37
C      15.84       0.01      -0.00
C      12.86       2.27       2.26
C      13.36       1.05       2.75
C      14.35       0.36       2.05
C      10.93       3.53       3.55
C      14.35       2.06       0.35
C      13.37       2.76       1.04
C      11.84       2.96       2.96
C      14.87       0.85       0.84
C      18.82       2.28      -2.26
C      18.30       2.77      -1.04
C      17.32       2.07      -0.35
C      20.75       3.54      -3.54
C      17.33       0.37      -2.05
C      18.31       1.06      -2.75
C      19.84       2.97      -2.95
C      16.80       0.86      -0.85
C      12.84      -2.25      -2.25
C      13.36      -2.75      -1.04
C      14.35      -2.05      -0.35
C      10.91      -3.52      -3.53
C      14.34      -0.35      -2.05
C      13.35      -1.03      -2.74
C      11.82      -2.94      -2.95
C      14.87      -0.84      -0.85
C      18.82      -2.25       2.27
C      18.31      -2.75       1.05
C      17.33      -2.05       0.36
C      20.74      -3.53       3.55
C      17.33      -0.34       2.05
C      18.31      -1.03       2.75
C      19.84      -2.95       2.97
C      16.81      -0.84       0.85
N       8.20       4.62       5.65
N       8.19       5.59       4.68
N      23.48       4.63      -5.65
N      23.50       5.60      -4.67
N       8.18      -4.61      -5.64
N       8.17      -5.58      -4.67
N      23.47      -4.62       5.66
N      23.46      -5.62       4.71
