26

H       4.70       9.99      17.01
H       2.18      10.00      17.02
H       4.81       7.45      13.73
H      -4.76      10.47      16.77
H      -4.64       7.40      13.97
H      -2.13       7.35      14.01
O       0.99       6.81      13.49
O       2.95       6.58      12.53
O      -1.00      10.50      17.61
O      -2.84      11.71      17.57
N       4.84       8.73      15.37
C       4.12       9.42      16.28
C       2.74       9.41      16.29
C       2.03       8.64      15.34
C       2.81       7.91      14.42
C       4.20       7.99      14.45
C       0.62       8.68      15.36
C      -0.57       8.86      15.51
C      -1.98       8.91      15.50
C      -2.76       9.79      16.28
C      -4.15       9.78      16.18
C      -4.07       8.07      14.61
C      -2.68       8.04      14.64
N      -4.78       8.93      15.37
N       2.20       7.03      13.40
N      -2.15      10.74      17.23
