22

H       0.95      19.36       3.38
H       5.01      20.73       3.76
H       5.23      19.56       5.95
H       0.21      16.67       7.29
H       4.26      18.05       7.68
H      -0.01      17.84       5.10
C       2.34      16.63       8.94
C       2.96      20.10       3.44
C       2.25      17.31       7.61
C       0.92      17.90       5.67
C       1.04      17.25       6.88
C       3.33      18.02       7.12
C       3.23      18.73       5.90
C       1.99      18.67       5.16
C       1.89      19.39       3.94
C       4.18      20.15       4.17
C       4.30      19.50       5.38
C       2.87      20.79       2.13
O       3.49      16.41       9.43
O       1.22      16.34       9.49
O       3.98      21.08       1.57
O       1.72      21.04       1.65
