30

H       5.49      -2.23      14.67
H       5.88      -2.57      16.36
H       4.47      -4.44      16.24
H       4.25      -4.19      14.50
H       5.82      -5.25      12.86
H       8.92      -4.55      15.90
H       7.83      -3.80      17.04
H       6.51      -5.73      17.08
H       7.60      -6.50      15.92
H       7.22      -6.17      13.41
C       8.11      -1.99      15.10
C       5.87      -3.00      15.35
C       5.01      -4.28      15.30
C       7.43      -4.04      13.64
C       7.86      -4.32      16.07
C       7.35      -3.32      15.01
C       5.90      -5.50      15.01
C       6.58      -5.32      13.65
C       6.99      -5.60      16.10
C       5.07      -6.78      15.06
N       8.93      -4.36      13.28
N       6.99      -3.13      12.45
O       7.80      -1.11      14.20
O       8.87      -1.79      16.08
O       4.19      -6.86      15.96
O       5.34      -7.70      14.20
O       9.78      -3.61      13.74
O       9.14      -5.34      12.56
O       5.78      -2.90      12.39
O       7.85      -2.73      11.67
