30

Cl      10.07       9.05       0.17
Cl       5.80       8.89      -0.17
H       6.45       8.95      -4.77
H       6.30       8.91      -2.35
H      10.61       9.09      -2.10
H      10.72       9.12      -4.54
H       5.27       8.84       2.10
H       9.57       9.02       2.35
H       9.42       8.99       4.76
H       5.15       8.81       4.54
O       9.83       9.12      -6.85
O       7.56       9.03      -6.96
O       6.04       8.81       6.85
O       8.31       8.90       6.96
C       8.67       9.07      -6.32
C       7.20       8.87       6.32
C       8.60       9.04      -4.83
C       7.37       8.98      -4.17
C       7.28       8.96      -2.78
C       8.44       9.00      -1.96
C       9.67       9.06      -2.66
C       9.75       9.08      -4.04
C       8.44       8.99      -0.47
C       7.43       8.94       0.47
C       6.20       8.87       2.66
C       7.43       8.93       1.96
C       8.59       8.97       2.78
C       8.51       8.95       4.17
C       7.28       8.89       4.83
C       6.12       8.85       4.04
