21

O       8.32      18.80       9.23
O      10.47      13.14      13.38
H      11.49      14.88      11.99
H      11.54      16.89      10.53
H       6.35      17.58      11.45
H       6.23      15.43      12.76
O       8.19      13.07      13.26
H       6.20      14.51      11.23
O       5.94      16.71       9.68
O      10.60      18.79       9.26
H       6.34      16.06       9.07
C       8.17      15.40      11.67
C       9.34      14.78      12.11
C      10.56      15.35      11.67
C      10.59      16.47      10.85
C       9.40      17.11      10.42
C       8.20      16.54      10.86
C       6.68      16.69      10.89
C       9.33      13.58      12.98
C       6.66      15.36      11.75
C       9.45      18.32       9.57
