30

H       8.00      10.86      14.98
H       7.96      10.94      17.46
H       9.75      12.56      21.45
H       9.04      11.38      19.40
H       8.49       8.41      21.70
H      10.62       7.46      15.11
H       9.54       8.35      19.68
H      10.58       7.51      17.60
C       9.31       9.30      19.17
C       9.14      10.41      19.91
C       9.23      10.62      24.22
C       9.30       9.26      17.71
C       9.30      10.69      25.71
C       9.33       9.13      13.41
C      10.02       8.26      17.03
C       9.33       9.17      14.90
C       8.58      10.15      15.57
C       8.57      10.19      16.95
C      10.05       8.22      15.64
C       8.81       9.35      22.16
C       8.84       9.45      23.54
C       9.55      11.71      23.40
C       9.49      11.67      22.02
C       9.15      10.47      21.37
O      10.29      11.32      26.19
O      10.07       8.25      12.84
O       8.37      10.12      26.36
O       8.59       9.98      12.81
F       8.52       8.34      24.26
F       9.89      12.89      23.98
