30

H       8.33       5.28       1.11
H       4.83       6.67       1.23
H       7.67       8.99      -1.20
H       9.13       6.86       1.09
H       5.93       8.87       1.12
H       4.78       6.65      -1.11
H       5.71       5.15      -1.12
H       5.78       5.18       1.23
C       6.65       6.95      -5.43
C       8.25       6.31       0.75
C       7.08       6.90       5.43
C       8.19       6.28      -0.79
C       5.69       6.17      -0.73
C       5.73       6.20       0.81
C       7.03       6.92       3.98
C       6.90       6.95      -1.32
C       6.98       6.97       1.32
C       6.86       8.41       0.76
C       6.85       8.41      -0.78
C       7.01       6.96       2.77
C       6.84       6.95      -2.77
C       6.74       6.95      -3.98
Br       9.81       7.11      -1.58
Br       8.27       9.60       1.45
O       7.75       7.02      -6.06
O       5.48       6.87      -5.93
O       8.25       6.92       5.95
O       5.97       6.86       6.05
F       8.19       4.95      -1.22
F       5.65       9.00      -1.21
