33

C       6.12       7.31       8.05
C       6.84       8.32       8.71
C       7.21       8.17      10.04
C       5.44       8.75       6.11
C       5.15       8.90       4.76
C       5.42       6.52       4.40
C       5.74       6.37       5.76
C       5.75       7.48       6.62
C       5.12       7.80       3.89
C       4.74       8.07       2.48
H       5.88       5.10      10.65
H       5.40       9.61       6.77
H       4.91       9.88       4.35
H       5.18       5.38       8.27
H       6.04       5.39       6.14
H       7.14       9.22       8.17
H       7.79       8.94      10.55
C       5.77       4.17       3.94
C       5.65       3.28       2.72
H       5.09       3.86       4.74
H       6.80       4.17       4.34
H       6.34       3.61       1.93
H       5.89       2.24       2.97
H       4.63       3.32       2.32
O       5.10       9.18       2.00
O       4.01       7.20       1.86
O       7.05       5.67      12.68
O       8.13       7.66      12.65
O       5.43       5.50       3.51
C       7.36       6.76      12.12
C       6.87       7.00      10.74
C       6.14       6.00      10.09
C       5.77       6.15       8.76
