14

C      -4.64       3.61      20.60
O      -6.64       1.62      20.48
C      -3.67       5.78      21.33
C      -5.70       3.57      21.44
H      -2.72       4.46      20.01
H      -4.55       2.82      19.86
H      -4.53       6.04      21.94
H      -5.84       4.31      22.23
C      -2.58       6.78      21.32
O      -2.75       7.76      22.14
C      -6.75       2.54      21.36
O      -7.70       2.67      22.20
O      -1.60       6.61      20.53
C      -3.61       4.63      20.62
