70

H       2.45       2.22      25.80
H      -2.45      -2.22      25.80
H       2.45      -2.22      20.18
H      -2.45       2.22      20.18
H       0.71       0.91      25.02
H      -0.71      -0.91      25.02
H       0.71      -0.91      20.96
H      -0.71       0.91      20.96
H      -0.67       5.13      25.18
H       0.67      -5.13      25.18
H      -0.67      -5.14      20.80
H       0.67       5.14      20.80
H       3.22       3.49      27.80
H      -3.22      -3.49      27.80
H       3.22      -3.49      18.18
H      -3.22       3.49      18.18
H       0.11       6.38      27.19
H      -0.11      -6.38      27.19
H       0.12      -6.39      18.79
H      -0.12       6.39      18.79
H       0.00       4.63      22.99
H      -0.00      -4.63      22.99
C       2.21       5.80      28.79
C      -2.21      -5.80      28.79
C       2.21      -5.80      17.19
C      -2.21       5.80      17.19
C       0.00       0.74      22.99
C      -0.00      -0.74      22.99
C       0.84       3.59      25.35
C      -0.84      -3.59      25.35
C       0.84      -3.59      20.63
C      -0.84       3.59      20.63
C       1.71       5.02      27.62
C      -1.71      -5.02      27.62
C       1.72      -5.02      18.36
C      -1.72       5.02      18.36
C       1.92       3.13      26.11
C      -1.92      -3.13      26.11
C       1.92      -3.13      19.87
C      -1.92       3.13      19.87
C       0.40       1.45      24.13
C      -0.40      -1.45      24.13
C       0.40      -1.45      21.85
C      -0.40       1.45      21.85
C       0.19       4.77      25.75
C      -0.19      -4.77      25.75
C       0.19      -4.78      20.23
C      -0.19       4.78      20.23
C       2.36       3.84      27.23
C      -2.36      -3.84      27.23
C       2.36      -3.84      18.76
C      -2.36       3.84      18.76
C       0.40       2.85      24.14
C      -0.40      -2.85      24.14
C       0.40      -2.86      21.84
C      -0.40       2.86      21.84
C       0.62       5.47      26.87
C      -0.62      -5.47      26.87
C       0.62      -5.47      19.11
C      -0.62       5.47      19.11
C       0.00       3.54      22.99
C      -0.00      -3.54      22.99
O       1.45       6.73      29.22
O      -1.45      -6.73      29.22
O       1.45      -6.73      16.76
O      -1.45       6.73      16.76
O       3.36       5.51      29.25
O      -3.36      -5.51      29.25
O       3.37      -5.51      16.74
O      -3.37       5.51      16.74
