20

C      24.19      15.48       3.05
C      22.06      14.49       4.76
C      24.21      14.19       3.58
C      22.05      15.80       4.21
C      23.18      13.72       4.40
C      23.08      16.27       3.39
C      24.99      12.89       3.65
C      23.83      12.36       4.58
H      23.02      17.28       3.00
H      25.10      12.36       2.69
H      25.97      12.97       4.12
H      24.12      12.12       5.61
H      23.24      11.52       4.18
Br      20.65      17.06       4.51
C      21.02      13.88       5.65
C      25.26      16.02       2.17
O      21.27      12.69       6.05
O      20.00      14.58       5.93
O      25.11      17.22       1.75
O      26.23      15.24       1.90
