34

C       4.17      11.46       7.75
H       5.37       9.61       6.08
C       4.37      11.86       6.28
C       4.37      11.24       2.79
C       3.05      10.38       7.88
C       4.30       9.46       5.87
C       3.71      10.81       5.35
H       4.35       8.62       7.88
H       3.90      12.33       8.36
S       0.92      12.22       7.80
H       5.10      11.04       8.14
Cl       2.32       7.88       7.01
Cl       3.74      13.51       5.88
H       5.43      11.93       6.05
Cl       4.28       8.15       4.67
H       1.04      10.01       7.18
H       1.79      11.78       5.08
H       1.71      10.02       5.02
H       0.57      13.67       6.26
O       0.83      10.01      12.05
C       4.06      11.05       3.96
O       5.72      10.57       1.05
C       2.71      10.08       9.26
C       2.38       9.73      10.37
O      -0.10      11.66       8.64
O       1.81      13.23       8.30
O       0.14      12.83       6.51
C       4.91      11.46       1.48
C       1.78       9.28      11.61
O       4.60      12.54       0.87
O       2.19       8.19      12.12
C       2.17      10.87       5.55
C       3.62       9.09       7.21
C       1.80      10.79       7.04
