13

O       8.53       0.63       9.35
C      10.02       4.36      13.67
C       8.44       1.62      10.11
O       9.36       2.92      11.89
H      11.35       3.39      12.27
H       9.94       0.96      11.51
H      10.58       2.30      13.47
H      10.51       2.17      10.32
O       8.83       4.81      13.56
O       7.46       2.43      10.23
C      10.41       3.17      12.81
C       9.67       1.88      10.97
O      10.93       4.78      14.44
