26

H       4.71      11.09       7.52
H       4.73      13.56       7.57
H       7.83      13.25      10.61
H       7.65      10.84      10.41
H       4.15      18.00       7.15
H       7.25      17.69      10.20
H       7.27      20.17      10.24
H       4.33      20.42       7.35
N       6.17      10.87       8.97
N       5.81      20.39       8.79
O       7.27      15.64      10.14
O       4.72      15.61       7.62
H       7.70      14.89      10.59
H       4.28      16.36       7.18
C       5.38      11.63       8.19
C       5.39      13.02       8.22
C       6.27      13.70       9.10
C       7.10      12.87       9.89
C       7.02      11.49       9.81
C       6.36      15.16       9.23
C       5.62      16.10       8.53
C       4.89      18.39       7.87
C       5.71      17.56       8.66
C       6.59      18.24       9.54
C       6.60      19.63       9.57
C       4.96      19.77       7.95
