28

O       8.19      20.08      12.49
H       7.58      18.58      10.67
O       1.41      18.79       3.16
H       2.00      20.29       4.99
O       2.56      16.84       3.14
H       5.42      22.27      10.64
O       7.06      22.06      12.48
H       4.19      21.53       8.67
H       4.16      16.59       5.01
H       5.32      17.30       7.05
H       7.14      17.17       9.18
H       2.40      21.67       6.52
O       6.44      17.54       8.61
O       3.07      21.29       7.11
C       7.34      20.91      12.00
C       2.28      17.98       3.63
C       6.59      20.48      10.79
C       3.01      18.40       4.86
C       6.83      19.23      10.22
C       6.14      18.79       9.09
C       2.75      19.64       5.45
C       3.40      20.05       6.61
C       3.95      17.56       5.46
C       4.60      17.97       6.61
C       5.63      21.30      10.21
C       4.93      20.87       9.09
C       5.14      19.61       8.46
C       4.38      19.22       7.25
