36

H       6.11       7.31      14.11
H       6.99      11.64      25.21
H       6.23       7.31      16.60
H       6.86      11.64      22.72
H       6.52      11.61      16.57
H       6.57       7.34      22.75
H       6.36      11.59      14.08
H       6.73       7.36      25.24
H       5.24      11.22      18.49
H       7.86       7.72      20.83
H       5.37      11.24      20.95
H       7.72       7.71      18.37
C       6.96       9.50      26.87
C       6.13       9.45      12.45
C       5.83      10.47      19.00
C       7.26       8.48      20.32
C       5.91      10.47      20.39
C       7.18       8.47      18.93
C       6.62       9.48      21.08
C       6.47       9.47      18.24
C       6.20       8.24      14.67
C       6.90      10.70      24.66
C       6.28       8.25      16.05
C       6.81      10.70      23.27
C       6.39       9.46      16.77
C       6.71       9.49      22.55
C       6.41      10.66      16.04
C       6.68       8.28      23.28
C       6.33      10.66      14.65
C       6.76       8.29      24.67
C       6.22       9.45      13.95
C       6.87       9.50      25.37
O       7.06      10.64      27.44
O       6.03       8.31      11.88
O       6.92       8.38      27.47
O       6.17      10.57      11.86
