28

O       9.51       8.89      12.54
O       7.24       8.90      12.51
C       8.36       8.99       0.76
C       7.16       9.00       1.50
C       7.20       8.98       2.88
C       8.43       8.97       3.59
H       6.22       9.02       0.96
H       6.28       8.99       3.47
O       7.17       9.04      -1.27
O       9.43       8.97      -1.36
H      10.51       8.99       0.85
H      10.49       8.95       7.76
C       9.62       8.97       2.82
C       9.59       8.98       1.43
C       8.42       8.95       4.99
C       8.36       8.94       6.21
C       8.35       8.93       7.62
C       7.15       8.92       8.37
C       7.16       8.91       9.76
C       9.59       8.93       9.72
C       9.57       8.94       8.34
C       8.39       8.91      10.44
C       8.39       8.90      11.94
C       8.32       9.00      -0.74
H       6.24       8.91      10.33
H      10.53       8.93      10.27
Br      11.30       8.95       3.71
Br       5.47       8.93       7.47
