20

H       7.08       0.81      10.16
H       6.84      -1.08       8.03
H       4.95       0.66       6.77
H       2.86      -0.68       8.15
H       3.13       1.19      10.29
H       5.00      -0.57      11.52
O       5.32       3.48       7.85
O       3.68      -3.37       9.44
O       5.94      -3.33       9.57
O       5.36       3.42      10.13
C       6.01      -0.55       8.52
C       6.15       0.45       9.71
C       5.11       1.40       9.00
C       4.82      -2.76       9.43
C       4.96       0.38       7.82
C       3.80      -0.34       8.59
C       3.95       0.66       9.78
C       4.99      -0.27      10.47
C       4.85      -1.29       9.26
C       5.27       2.87       8.99
