32

C      21.70      13.46      22.44
O      19.46      11.94      23.60
C      22.90      14.17      22.23
H      22.01      15.96      19.48
O      20.97       8.47      29.55
C      19.61      14.80      19.56
H      19.67      13.16      21.76
O      22.50       7.37      28.30
C      20.62      11.85      24.03
H      23.76      14.01      22.88
C      20.96      10.97      25.19
H      19.01      11.28      26.07
C      19.98      10.79      26.17
H      19.45       9.80      28.02
C      20.22       9.95      27.26
H      23.34       8.86      26.45
C      21.43       9.25      27.36
H      22.94      10.39      24.52
H      22.56      12.47      24.02
C      22.40       9.42      26.37
C      22.18      10.29      25.30
C      21.65       8.29      28.49
C      24.27      15.85      20.98
N      21.68      12.55      23.51
O      25.31      15.49      21.61
C      23.00      15.09      21.18
O      18.42      14.51      19.93
C      21.92      15.27      20.32
O      24.27      16.83      20.15
C      20.74      14.57      20.52
O      19.90      15.29      18.43
C      20.60      13.68      21.59
