28

H       3.34       6.15       2.98
H       7.60       6.28       2.85
C       4.28       5.77       3.36
C       6.70       5.85       3.28
C       6.80       4.87       4.25
C       5.61       4.30       4.81
C       5.64       3.30       5.80
C       3.22       3.23       5.88
C       3.12       4.21       4.91
C       4.32       4.77       4.35
C       5.45       6.30       2.83
H       6.59       2.91       6.18
C       4.47       2.77       6.33
H       2.32       2.80       6.31
C       1.74       4.64       4.48
C       8.18       4.43       4.67
O       3.48       1.22       7.86
O       5.75       1.36       7.73
H       1.18       3.79       4.08
H       1.73       5.43       3.73
H       1.17       5.01       5.35
H       8.72       3.98       3.82
H       8.19       3.71       5.49
H       8.77       5.30       4.99
C       4.58       1.71       7.38
O       4.17       7.71       1.43
O       6.44       7.85       1.29
C       5.35       7.36       1.78
