35

O       5.29       5.75       1.03
O       5.64       7.88       1.71
O       2.20       4.86       0.51
O       2.62       6.85       1.54
O       2.02       2.67       7.23
O       5.65       5.30       8.23
H       1.84       3.48      11.85
H       1.87       4.45       9.53
H       5.70       2.54       8.93
H       5.54       1.68      11.29
H       6.44       6.77       6.36
H       6.57       7.54       3.98
H       1.31       3.56       2.46
H       1.32       2.68       4.83
C       2.68       3.32      11.18
C       2.70       3.85       9.89
C       3.78       3.54       9.07
C       4.84       2.77       9.56
C       4.75       2.30      10.86
C       4.84       4.93       7.37
C       4.84       5.40       5.98
C       3.91       4.89       5.03
C       2.94       3.94       5.43
C       2.85       3.48       6.83
C       5.76       6.37       5.61
C       5.81       6.81       4.28
C       4.96       6.30       3.32
C       3.94       5.36       3.68
C       2.95       4.88       2.77
C       2.05       3.90       3.18
C       2.05       3.42       4.50
C       5.28       6.68       1.90
C       2.61       5.57       1.48
N       3.68       2.54      11.65
N       3.82       4.01       7.72
