30

N       9.93      18.75       4.25
N       8.93      19.60      -4.26
O      11.66      16.86       4.80
O       7.01      21.31      -4.81
H       8.84      19.80       2.19
H      10.01      18.54      -2.20
O       5.89      22.43      -3.18
H       7.74      20.63       0.83
H      12.06      16.25       0.93
H      10.84      17.44      -0.84
H       6.52      21.82      -0.94
O      12.80      15.75       3.17
C      11.93      16.58       3.58
C       6.74      21.58      -3.59
O      10.63      19.65       4.73
O       8.95      18.22       4.79
O       9.81      20.30      -4.76
O       8.40      18.60      -4.77
C      11.16      17.33       2.55
C       7.53      20.85      -2.55
C      10.23      18.33       2.86
C       9.53      19.03       1.88
C       8.53      19.92      -2.87
C       9.25      19.24      -1.89
C       7.28      21.08      -1.19
C       7.98      20.41      -0.21
C      11.35      17.04       1.19
C      10.66      17.72       0.20
C       9.73      18.73       0.52
C       8.98      19.47      -0.53
