26

H      23.55       5.62       1.20
H      23.52       7.64       2.65
O      24.34       1.96       2.50
H      24.75       3.22       4.56
O      23.95       3.27       0.68
H      24.78       5.25       6.00
H      23.43       6.75       7.05
H      24.85       9.13       3.74
H      23.42       8.78       8.49
H      24.77      11.16       5.18
O      24.23      12.43       7.20
O      23.86      11.13       9.03
C      24.15       3.09       1.93
C      24.15       4.30       2.79
C      23.82       5.55       2.26
C      23.81       6.68       3.07
C      24.15       6.59       4.43
C      24.49       5.33       4.96
C      24.48       4.20       4.15
C      24.14       7.79       5.29
C      23.75       7.71       6.64
C      23.73       8.84       7.45
C      24.09      10.09       6.92
C      24.48      10.18       5.58
C      24.51       9.05       4.78
C      24.06      11.31       7.78
