54

C       2.10       5.18       7.13
C       2.76       3.96       7.26
C       2.71       3.24       8.46
C       2.01       3.77       9.56
C       2.45      -1.27      11.00
C       2.52      -2.68      10.95
C       1.82      -3.41      11.95
C       1.10      -2.71      12.94
C       1.09      -1.33      12.99
C       1.77      -0.58      12.01
N       0.26       3.35      17.95
N       0.74       6.96       8.12
N       3.19      -3.29       9.92
O       2.76      -5.52      11.38
O       0.89      -5.48      12.65
O       2.56       5.64      19.13
H       1.91       4.78      12.07
O       0.66       6.69      18.50
H       1.86       1.09       9.88
H       1.72       1.04      14.17
H       3.01       5.36      13.89
H       2.90       6.57      16.04
O       3.10       6.72       5.60
H       0.47       2.29      15.53
H       0.77       5.39      10.25
H       3.34       3.57       6.42
O       1.21       5.66       4.98
H       3.27       2.31       8.55
H       3.03      -0.71      10.26
H       0.50      -0.82      13.75
H       0.55      -3.29      13.68
H      -0.22       4.03      18.54
H      -0.39       2.61      17.68
H       0.28       7.12       7.22
H       0.08       7.12       8.87
H       3.43      -4.26      10.10
H       3.90      -2.73       9.46
C       1.82      -4.89      12.00
C       1.61       5.87      18.29
C       2.14       5.90       5.82
C       1.93       3.02      10.83
C       1.88       3.69      12.06
C       1.78       3.00      13.27
C       1.74       1.59      13.24
C       1.79       0.89      12.03
C       1.88       1.62      10.83
C       2.35       5.64      15.92
C       2.40       4.96      14.70
C       1.74       3.73      14.56
C       1.04       3.21      15.65
C       0.95       3.89      16.87
C       1.64       5.12      17.00
C       1.38       5.01       9.43
C       1.38       5.73       8.22
