16

C      16.10      12.06      10.60
C      15.94      10.68      10.71
Cl      15.20      10.07      12.15
Cl      17.76      12.44       6.95
H      17.18       9.81       7.68
C      16.87      10.45       8.50
C      17.03      11.83       8.40
O      15.98       7.81       8.53
O      16.49       7.74      10.74
O      16.41      14.77       8.38
C      16.25       8.35       9.65
C      16.64      12.66       9.46
C      16.34       9.85       9.65
H      15.79      12.70      11.43
C      16.73      14.16       9.46
O      17.08      14.70      10.55
