30

C      36.63      16.98      12.00
C      36.63      18.20      12.87
C      36.63      14.68      10.38
C      36.63      11.23       7.94
C      36.63      10.01       7.08
C      36.63      13.52       9.56
H      36.63      15.63      13.68
H      36.63      13.14      13.47
H      36.63      18.11      10.18
H      36.63      17.08       7.90
H      36.63      10.09       9.76
H      36.63      11.12      12.04
H      36.63      12.57       6.26
H      36.63      15.06       6.47
O      36.63      19.33      12.27
O      36.63      18.01      14.13
O      36.63      10.19       5.81
O      36.63       8.88       7.67
C      36.63      15.71      12.59
C      36.63      14.55      11.81
C      36.63      13.23      12.38
C      36.63      17.11      10.61
C      36.63      15.98       9.78
C      36.63      16.08       8.35
C      36.63      11.09       9.33
C      36.63      12.22      10.16
C      36.63      12.12      11.59
C      36.63      12.49       7.35
C      36.63      13.65       8.14
C      36.63      14.97       7.56
