16

C       7.57       7.27       3.59
C       6.74       9.29       2.52
O       8.72       5.45       2.59
F       6.85      10.16       1.50
C       7.59       8.18       2.53
C       6.66       7.50       4.63
O       4.82      11.34       4.67
F       8.48       8.05       1.52
C       5.82       8.60       4.63
C       4.94      10.72       3.56
O       4.40      11.00       2.45
F       6.56       6.62       5.66
O       9.10       5.94       4.78
C       8.54       6.12       3.65
C       5.84       9.52       3.57
F       4.95       8.75       5.65
