22

H       3.54       1.04      14.04
H       6.31      -0.77      11.22
H       4.79      -3.38      15.10
H       4.77      -0.88      15.27
H       7.46       3.58      12.53
H       7.58       1.08      12.48
C       4.43       2.96      13.66
C       4.44       1.55      13.71
C       5.91      -2.71      12.07
C       5.98      -1.30      12.11
C       5.10      -2.75      14.26
C       5.10      -1.37      14.35
C       6.62       2.96      12.84
C       6.68       1.59      12.81
C       5.56       0.86      13.27
C       5.56      -0.62      13.25
N       5.52       3.65      13.24
N       5.50      -3.41      13.15
H       3.37       4.59      13.86
H       6.05      -4.32      10.97
O       3.32       3.59      14.03
O       6.25      -3.32      10.95
