46

O       6.75      11.57       5.20
C       7.65      11.00       5.83
C       7.91       9.51       5.78
C       7.15       8.75       4.70
C       7.57       7.28       4.69
C       6.93       6.46       3.57
C       7.36       4.98       3.60
C       6.89       4.28       4.87
C       7.03       2.77       4.82
O       8.08       2.20       4.55
C       5.66       0.75       5.35
C       6.69      -0.22       5.43
C       6.34      -1.53       5.72
C       4.34       0.31       5.54
C       4.10      -1.02       5.83
C      10.02      14.79       7.80
H       9.24      11.06       7.13
H       5.03       2.69       5.23
H       7.97      16.10       5.60
H       7.32      13.71       5.31
H      10.30      12.73       8.30
H      10.81      15.14       8.47
H       9.00       9.37       5.64
H       7.68       9.11       6.78
H       6.07       8.84       4.86
H       7.35       9.21       3.72
H       8.67       7.22       4.59
H       7.33       6.84       5.67
H       5.83       6.52       3.64
N       8.55      11.66       6.65
H       7.20       6.90       2.60
H       8.45       4.89       3.51
H       6.94       4.46       2.72
H       5.84       4.55       5.06
H       7.48       4.60       5.74
N       5.86       2.10       5.13
H       7.72       0.07       5.27
H       3.51       1.01       5.48
H       7.11      -2.30       5.80
N       5.08      -1.95       5.92
H       3.09      -1.38       6.00
N       9.40      15.73       7.05
C       8.44      15.32       6.19
C       8.08      13.99       6.04
C       8.74      13.01       6.80
C       9.72      13.45       7.71
