36

Cl       1.02       2.31       5.50
Cl       5.61      -2.31      -5.50
H       4.62       3.28       1.33
O       4.10       5.03       5.95
H       2.02      -3.28      -1.33
O       2.53      -5.03      -5.95
H       1.55       0.89       3.20
H       5.08      -0.89      -3.20
O       1.84       5.15       5.89
O       4.79      -5.15      -5.89
H       2.87      -0.75       2.33
H       3.76       0.75      -2.33
H       3.05      -2.41       0.52
H       3.58       2.41      -0.52
C       2.97       4.75       5.46
C       3.66      -4.75      -5.46
C       3.84       4.01       3.19
C       2.79      -4.01      -3.19
C       3.91       3.10       2.13
C       2.73      -3.10      -2.13
C       3.10       1.95       2.13
C       3.53      -1.95      -2.13
C       2.21       1.76       3.19
C       4.42      -1.76      -3.19
C       2.14       2.68       4.23
C       4.49      -2.68      -4.23
C       2.97       3.82       4.28
C       3.66      -3.82      -4.28
C       3.05      -0.41       1.30
C       3.58       0.41      -1.30
C       3.15      -1.35       0.28
C       3.48       1.35      -0.28
C       3.42      -0.96      -1.04
C       3.21       0.96       1.04
Cl       4.86       5.40       3.08
Cl       1.77      -5.40      -3.08
