48

H       2.10      12.87      22.30
H       2.14       9.15      20.15
H       2.06      12.87      18.01
H       1.30      14.77      22.12
H       3.17      14.67      18.22
O       1.48      19.46      19.55
H       2.93      11.75      23.85
H       1.05       8.42      21.83
H       1.10       8.43      18.43
O       3.41      19.43      20.73
O       3.07       8.21      13.07
O       0.88       8.22      27.20
H       3.09      11.74      16.52
O       2.81       7.19      26.64
O       1.14       7.20      13.65
C       2.10       8.00      13.87
C       2.43      18.87      20.15
C       1.85       8.00      26.42
C       2.06      10.92      21.38
C       2.10      12.32      21.36
C       2.14      13.04      20.16
C       2.11      12.33      18.95
C       2.09      10.92      18.94
C       2.09      10.24      20.16
C       1.88      16.65      21.27
C       1.77      15.26      21.26
C       2.22      14.52      20.16
C       2.77      15.21      19.07
C       2.82      16.60      19.07
C       2.39      17.36      20.17
C       2.47      10.76      23.85
C       2.39      10.07      25.05
C       1.89       8.76      25.12
C       1.44       8.19      23.92
C       1.47       8.89      22.72
C       2.00      10.18      22.66
C       1.56       8.90      17.57
C       1.57       8.20      16.36
C       2.10       8.75      15.17
C       2.63      10.06      15.29
C       2.63      10.75      16.49
C       2.09      10.19      17.66
Br       3.51      17.47      17.53
Br       1.32      17.58      22.82
Br       2.97      10.95      26.63
Br       0.77       6.42      23.91
Br       0.86       6.43      16.47
Br       3.33      11.04      13.81
