60

H       2.86      12.66       2.15
H       2.81      12.65      -2.14
H       4.21      10.57      -2.16
H       4.26      10.58       2.15
H       8.68      12.66      -2.15
H       8.73      12.65       2.14
H       7.33      10.57       2.16
H       7.28      10.58      -2.15
H       8.68       3.19      -2.15
H       8.73       3.20       2.14
H       7.33       5.27       2.16
H       7.28       5.26      -2.15
H       2.86       3.19       2.15
H       2.81       3.20      -2.14
H       4.21       5.27      -2.16
H       4.26       5.26       2.15
C       2.75      12.77       0.01
C       1.82      13.95       0.02
C       5.07       9.15      -0.01
C       4.32      10.44      -0.01
C       3.17      12.20       1.21
C       3.15      12.19      -1.21
C       3.92      11.04      -1.21
C       3.95      11.04       1.21
C       8.79      12.77      -0.01
C       9.72      13.95      -0.02
C       6.48       9.15       0.01
C       7.23      10.44       0.01
C       8.37      12.20      -1.21
C       8.40      12.19       1.21
C       7.62      11.04       1.21
C       7.59      11.04      -1.21
C       8.79       3.08      -0.01
C       9.72       1.90      -0.02
C       6.48       6.69       0.01
C       7.23       5.41       0.01
C       8.37       3.65      -1.21
C       8.40       3.66       1.21
C       7.62       4.81       1.21
C       7.59       4.80      -1.21
C       2.75       3.08       0.01
C       1.82       1.90       0.02
C       5.07       6.69      -0.01
C       4.32       5.41      -0.01
C       3.17       3.65       1.21
C       3.15       3.66      -1.21
C       3.92       4.81      -1.21
C       3.95       4.80       1.21
C       4.39       7.92      -0.02
C       7.15       7.92       0.02
Br       2.48       7.92      -0.03
Br       9.06       7.92       0.03
O       1.45      14.39       1.15
O       1.44      14.40      -1.12
O      10.09      14.39      -1.15
O      10.10      14.40       1.12
O      10.09       1.45      -1.15
O      10.10       1.45       1.12
O       1.45       1.45       1.15
O       1.44       1.45      -1.12
