36

H       2.17       2.70       1.19
H       9.99       5.61       2.47
H       7.91       5.88      -1.77
H       0.48       3.11      -0.55
H      -0.15       4.11      -2.76
H       3.76       5.77      -3.19
H       4.35       3.10       2.14
H       5.64       5.60      -2.65
H       9.46       5.89       0.04
C       1.41       5.58      -4.41
C       8.32       5.04       4.45
C       1.78       5.00      -3.07
C       8.00       4.99       2.98
C       1.20       3.69      -1.13
C       0.84       4.25      -2.34
C       3.07       5.17      -2.58
C       3.47       4.63      -1.34
C       2.50       3.88      -0.60
C       4.80       4.81      -0.80
C       5.10       4.38       0.53
C       4.12       3.59       1.20
C       2.88       3.34       0.66
C       5.84       5.35      -1.61
C       7.11       5.51      -1.13
C       7.41       5.26       0.24
C       6.39       4.74       1.11
C       8.70       5.54       0.74
C       9.00       5.39       2.07
C       6.74       4.68       2.48
N       5.71       4.28       3.47
O       0.19       5.51      -4.75
O       2.35       6.08      -5.12
O       7.35       5.25       5.25
O       9.54       4.90       4.78
O       4.80       5.08       3.72
O       5.80       3.14       3.95
