44

O       3.58       7.18       1.74
O       2.44       7.84      -0.11
O       3.59       3.67      16.47
O       2.45       3.01      18.32
H       2.16       6.36       3.55
H       2.16       5.53       7.86
O      -3.56       3.67      16.47
O      -2.43       3.01      18.32
O      -3.58       7.18       1.74
H       2.17       5.32      10.34
O      -2.44       7.84      -0.11
H       2.18       4.49      14.66
H      -2.14       4.49      14.66
H      -2.15       5.32      10.35
H      -2.16       6.36       3.55
H      -2.15       5.53       7.87
H       0.00       7.68       0.07
H       0.01       3.17      18.14
C       2.51       7.36       1.07
C       1.21       7.02       1.74
C       1.21       6.53       3.04
C       1.22       5.48       8.41
C       2.52       3.49      17.14
C       1.22       3.83      16.47
C       1.23       4.32      15.17
C       1.22       5.37       9.79
C      -2.49       3.49      17.14
C      -1.20       3.83      16.47
C      -1.20       4.32      15.16
C      -1.21       5.37       9.80
C      -2.50       7.36       1.07
C      -1.21       7.02       1.73
C      -1.21       6.53       3.04
C      -1.21       5.48       8.42
C       0.00       7.27       1.08
C      -0.00       6.30       3.72
C      -0.00       5.93       5.09
C       0.00       5.71       6.29
C       0.00       5.55       7.69
C       0.01       3.58      17.13
C       0.02       4.55      14.49
C       0.02       4.93      13.12
C       0.01       5.14      11.92
C       0.01       5.31      10.52
