34

H       2.35       4.42      18.72
H       2.20       1.94      19.01
H       6.16       1.53      17.32
H       6.30       4.03      17.09
H       4.35      -2.77      20.65
H       8.50      -3.82      21.05
H       9.17      -1.66      20.04
H       9.27       0.68      20.10
H       9.30      -0.07      18.46
H       8.76       1.62      18.66
S       4.03      -0.15      18.36
O       3.36       6.53      18.02
O       5.49       6.37      17.32
O       2.65      -0.49      18.60
O       4.79      -0.84      17.35
O       4.80      -0.31      19.81
O       4.79      -5.04      21.70
O       6.94      -5.28      22.30
O       7.39       0.26      19.28
C       4.40       5.86      17.73
C       4.34       4.37      17.91
C       3.19       3.78      18.44
C       3.10       2.40      18.59
C       4.17       1.61      18.18
C       5.34       2.17      17.64
C       5.42       3.56      17.51
C       5.78      -1.30      20.01
C       5.41      -2.53      20.52
C       6.39      -3.44      20.93
C       7.74      -3.11      20.75
C       8.12      -1.89      20.19
C       7.14      -0.96      19.81
C       6.02      -4.67      21.66
C       8.77       0.63      19.12
