32

H       6.90       9.07       0.54
H       2.65       8.27      -1.10
H       6.83       6.19      -2.75
H       6.87       7.47      -0.65
C       7.35      10.53       2.65
H       2.65      10.16       2.85
H       2.60       8.70       0.87
C       2.20       6.96      -3.30
O       3.58       5.18      -4.73
O       5.93      11.51       4.60
H       7.42       9.08       3.92
H       1.82       5.21      -2.58
O       5.85       5.08      -4.65
O       3.65      11.48       4.62
C       4.72       5.50      -4.23
C       4.79      11.17       4.12
O       8.03       9.75       3.56
O       7.90      11.48       2.13
O       1.35       5.94      -3.04
O       1.84       7.90      -3.99
C       4.79      10.33       2.90
C       4.71       6.37      -3.03
C       6.00      10.02       2.23
C       5.96       9.25       1.07
C       3.52       6.98      -2.57
C       3.56       7.76      -1.41
C       5.91       6.59      -2.34
C       5.92       7.34      -1.17
C       3.58       9.86       2.37
C       3.56       9.06       1.24
C       4.75       8.75       0.55
C       4.75       7.94      -0.68
