34

C      -2.56       7.79       7.70
C      -2.55      10.23       8.28
C      -2.43      10.61       6.79
C      -2.95      10.18       3.34
C      -3.33       8.91       8.45
C      -2.48       8.11       6.19
C      -3.08       9.50       5.91
C      -4.58       9.46       6.32
C      -4.73       9.07       7.81
C      -2.97       9.85       4.51
C      -3.43       8.57       9.86
C      -3.50       8.28      11.04
C      -3.02      10.73       2.02
C       0.01      10.24       6.81
O      -2.35       7.51      12.88
O      -4.62       7.43      12.89
H      -1.45       8.06       5.82
H      -1.56       7.71       8.16
H      -3.05      11.03       8.85
H      -1.55      10.11       8.73
H      -3.02      11.52       6.60
H      -5.28       8.13       7.93
H      -5.29       9.84       8.37
H      -5.09       8.74       5.66
H      -3.06       6.83       7.87
H      -3.04       7.37       5.61
H      -5.03      10.44       6.12
O      -4.16      11.08       1.61
O      -1.90      10.87       1.37
O      -1.11      11.00       6.37
H      -0.17       9.16       6.83
H       0.36      10.56       7.80
H       0.81      10.43       6.07
C      -3.48       7.72      12.36
