30

O       8.32      10.73      26.14
O      10.57      10.93      26.13
O      10.18       7.61      15.34
O       7.92       7.70      15.31
O      11.62      11.13      23.60
H      11.21       8.03      17.45
H       7.30       8.56      22.03
H       7.49       9.31      24.39
H      11.28       8.61      19.87
H      11.16      10.34      21.24
H       7.03       9.29      19.83
H       6.96       8.66      17.42
H      13.03       9.63      23.25
H      12.45       9.76      24.95
H      13.53      11.02      24.27
C       9.07       7.86      15.88
C       9.08       8.31      17.29
C      10.30       8.31      17.99
C      10.33       8.64      19.33
C       9.16       8.99      20.02
C       7.94       8.99      19.32
C       7.90       8.65      17.97
C       8.19       9.10      22.36
C       8.30       9.49      23.69
C      10.50      10.41      23.26
C      10.37      10.04      21.92
C       9.23       9.37      21.45
C       9.45      10.14      24.17
C       9.45      10.62      25.58
C      12.72      10.32      24.05
