32

C       2.64      -0.95      11.20
H       0.15      -4.85      10.06
C       1.51       1.16      11.75
H       1.93      -4.99      10.12
C       1.14       0.78      13.16
H       1.16      -4.04       8.83
C       1.95       1.11      14.25
H       0.29      -2.43      10.53
C       1.56       0.73      15.53
H       0.14      -3.99      12.46
C      -0.36      -0.28      14.71
H       1.03      -2.54      12.91
C      -0.04       0.06      13.41
H       1.92      -4.04      12.58
C       4.00      -0.34      10.82
H       2.50      -2.10       9.38
N       1.58       0.00      10.83
H       3.32      -2.92      10.72
N       0.42       0.05      15.76
H       2.66      -1.13      12.29
H       0.77       1.86      11.34
O       4.99      -0.64      11.54
H       2.48       1.67      11.74
O       4.08       0.40       9.78
H       2.89       1.64      14.12
H       2.17       0.97      16.40
H      -1.28      -0.82      14.94
H      -0.72      -0.25      12.61
C       1.09      -4.30       9.90
C       1.17      -3.05      10.78
C       1.06      -3.42      12.27
C       2.46      -2.28      10.46
