20

H       7.10       3.45       3.96
H       8.62       2.92       3.32
H       7.90       8.81       8.06
H       6.97       8.11       6.86
H      10.50       5.95       9.06
H      11.86       6.70       8.54
H      10.73       3.83       3.97
H       8.32       6.44       8.29
H      10.56       8.07       7.01
C      10.15       6.05       6.27
C      10.17       4.48       4.64
C       8.74       4.49       4.59
C       8.77       6.06       6.23
C       8.63       7.02       7.40
C      10.23       7.10       7.40
N      10.88       5.25       5.48
N       8.01       5.32       5.41
N       8.08       3.68       3.73
N       7.93       8.26       7.20
N      10.85       6.83       8.67
