15

H       9.71      13.00      18.38
H       8.91      12.55      16.86
H       9.60      14.18      17.05
H      10.76      13.78      14.88
O      12.30      10.51      16.59
H      10.27      12.07      14.75
H      12.00      12.53      14.71
O      10.38      10.54      17.73
C      12.26      13.41      17.24
O      13.45      13.01      17.03
O      12.01      14.45      17.92
C      11.26      11.11      17.04
C      11.05      12.61      16.70
C       9.74      13.12      17.29
C      11.02      12.75      15.16
