24

C       0.03       5.86       1.92
H      -2.17       5.15       6.48
H      -0.39       3.61       8.05
H      -1.79       7.35       8.24
H       0.37       8.24       6.64
H       2.15       6.70       8.21
H       1.77       4.49       6.45
O       1.16       5.68       1.36
O      -1.11       5.75       1.34
O       1.08       6.16      13.35
O      -1.20       6.11      13.33
C      -0.22       4.64       7.72
C      -1.21       5.50       6.87
C       0.02       6.11       3.34
C      -0.04       5.74      11.36
C       0.98       5.13       6.86
C      -0.05       5.99      12.76
C      -0.01       5.99       5.97
C       1.19       6.35       7.82
C      -0.01       5.85       8.72
C       0.20       7.21       6.97
C      -1.00       6.71       7.83
C       0.00       6.07       4.56
C      -0.02       5.78      10.13
