16

C       4.97       8.22      10.98
C       5.19      14.05      10.97
H       2.89      10.01      11.03
H       7.17       9.74      10.86
H       3.08      12.51      10.96
C       5.21      12.54      10.93
C       5.02       9.72      10.96
C       6.37      11.74      10.89
C       3.86      10.50      10.99
C       6.27      10.35      10.90
C       3.97      11.89      10.95
Br       8.15      12.42      10.77
O       3.85       7.67      11.23
O       6.07       7.62      10.74
O       6.23      14.66      11.37
O       4.10      14.61      10.63
