14

C       1.48       6.29      24.10
C       0.04       4.81      22.45
C       0.09       6.31      24.11
C       1.45       4.80      22.44
C       1.60       7.30      25.21
C       0.01       7.33      25.22
F      -0.61       4.03      21.60
F       2.07       4.00      21.57
H       2.07       6.92      26.13
H       2.10       8.24      24.92
N       2.20       5.54      23.25
H      -0.44       8.29      24.92
H      -0.46       6.98      26.14
N      -0.67       5.57      23.29
