16

C       5.69       0.63      12.14
O       6.01      -2.59      10.92
C       6.37      -0.50      11.85
C       5.75       1.31      13.43
N       3.60       2.69      13.86
C       6.81       1.26      14.31
O       7.97       0.67      13.97
O       5.84      -0.80       9.53
H       4.95       1.01      11.43
H       7.05      -0.95      12.57
H       8.61       0.86      14.70
O       5.62       2.07      16.19
C       6.75       1.82      15.68
O       7.89       1.97      16.28
C       4.58       2.07      13.75
C       6.06      -1.34      10.68
