18

C       1.48       5.80      14.06
C      -1.36       8.05      14.03
O       1.88       4.50      14.07
O      -1.76       9.35      14.02
C       2.35       6.88      14.06
C      -2.24       6.97      14.02
C      -0.01       7.62      14.05
C       0.12       6.23      14.05
H       1.09       3.93      14.06
H      -0.97       9.92      14.05
O       4.36       8.07      14.04
O       4.43       5.79      14.03
C      -3.70       6.95      14.01
C       3.82       6.91      14.04
O      -4.25       5.79      14.00
O      -4.31       8.07      14.02
S       1.52       8.42      14.05
S      -1.41       5.43      14.04
