30

H       3.84      10.77       7.38
H       3.60      13.27       7.45
H       2.88      17.16       7.03
H       6.02      17.00       9.98
N       5.38      10.71       8.77
N       5.23      14.88       9.02
N       4.39      15.52       8.31
N       4.42      19.71       8.69
N       7.19      10.72      10.27
N       6.98      13.45      10.57
H       7.34       9.73      10.04
H       7.35      10.99      11.23
H       6.96      14.46      10.48
H       7.90      13.03      10.67
N       2.67      19.82       7.15
N       6.08      19.63      10.33
H       2.49      20.79       7.42
H       2.01      19.36       6.54
H       5.75      20.54      10.67
H       6.54      19.06      11.02
C       4.47      11.39       8.01
C       4.33      12.75       8.05
C       5.18      13.49       8.91
C       6.13      12.81       9.70
C       6.21      11.38       9.58
C       3.57      17.66       7.70
C       4.47      16.92       8.46
C       5.34      17.57       9.35
C       5.27      18.96       9.46
C       3.55      19.07       7.85
