33

C      22.29      11.62      12.41
O      19.21       9.69      10.29
H      20.46      10.48      12.28
C      23.34      12.24      11.71
O      20.13      10.22       8.34
C      23.33      12.19      10.30
H      22.31      11.62      13.50
H      24.13      12.67       9.74
C      22.28      11.58       9.62
C      24.41      12.94      12.44
H      22.26      11.56       8.54
C      24.08      13.74      13.55
H      23.03      13.82      13.85
C      25.04      14.46      14.24
H      24.76      15.06      15.11
C      26.39      14.35      13.87
H      27.79      13.44      12.49
H      26.05      12.21      11.22
C      26.74      13.53      12.78
C      25.76      12.85      12.06
H      26.25      16.92      14.80
C      27.41      15.09      14.63
H      27.99      18.11      16.11
C      27.18      16.41      15.05
H      30.49      14.80      16.09
C      21.26      10.98      11.74
C      28.14      17.07      15.79
H      28.87      13.48      14.70
C      29.55      15.23      15.75
C      20.13      10.28       9.61
C      21.23      10.97      10.33
C      28.64      14.51      14.99
N      29.31      16.50      16.16
