28

Cl       3.29      26.16       9.51
Cl       3.29      31.86       7.24
H       0.83      25.84       4.48
H       0.84      28.01       5.72
H       3.14      24.03       7.63
H       3.14      33.99       9.12
O       2.98      35.30      11.28
H       0.84      30.01      11.03
O       1.10      34.68      12.39
H       0.83      32.18      12.27
O       2.98      22.72       5.47
O       1.10      23.34       4.36
C       2.03      34.49      11.53
C       2.03      23.54       5.22
C       1.99      24.81       5.98
C       1.33      25.93       5.44
C       1.34      27.13       6.13
C       1.95      27.24       7.40
C       2.57      26.09       7.95
C       2.62      24.90       7.23
C       1.94      28.47       8.09
C       1.94      29.55       8.66
C       1.95      30.78       9.35
C       2.57      31.93       8.81
C       2.62      33.12       9.52
C       1.99      33.21      10.77
C       1.33      32.09      11.31
C       1.34      30.89      10.62
