28

H       0.83      19.46       7.57
H       0.84      17.30       8.84
H       3.14      17.64       4.44
Cl       3.29      14.07      11.41
H       3.14      11.37      12.32
H       0.84      11.71       7.91
H       0.83       9.55       9.18
Cl       3.29      14.95       5.34
O       2.98       8.85      12.37
O       1.10       8.19      11.28
O       2.98      20.17       4.38
O       1.10      20.82       5.47
C       2.03       9.03      11.54
C       2.03      19.98       5.21
C       1.99      18.68       5.94
C       1.33      18.59       7.17
C       1.34      17.39       7.87
C       1.95      16.23       7.33
C       2.57      16.34       6.06
C       2.62      17.56       5.39
C       1.94      15.02       8.05
C       1.94      13.99       8.70
C       1.95      12.78       9.42
C       2.57      12.67      10.69
C       2.62      11.46      11.36
C       1.99      10.33      10.81
C       1.33      10.43       9.58
C       1.34      11.63       8.88
