26

H       7.48       3.00       6.08
H       8.38       1.11       8.03
H       9.51       4.80       6.95
H      13.01       1.33       6.03
H      11.30       3.69       5.06
H      10.18       0.03       6.13
C      10.57       4.08      11.64
C       9.01       1.70       7.35
C       8.53       2.74       6.29
C       9.15       1.39       2.73
C      10.49       3.44      10.36
C      10.01       1.09       6.32
C       9.52       2.13       5.23
C      11.13       2.10       6.81
C      10.13       2.70       7.86
C      10.64       3.13       5.72
C       9.64       3.74       6.75
C       9.28       1.77       3.88
C      10.37       3.07       9.20
C       9.11       0.74       1.45
C      12.55       1.73       6.98
O       7.94       0.44       0.98
O       9.48       4.39      12.19
O      11.75       4.32      12.10
O      13.20       1.83       8.00
O      10.22       0.46       0.91
