38

H       2.85       4.61       8.33
H       1.02       6.08       7.52
H      -1.52       2.63       7.06
H       0.30       1.18       7.85
H      -0.98       7.08       7.82
H      -4.35       7.48       5.17
H      -2.23       3.75       5.38
H      -2.86       3.75       3.18
H      -6.09       6.01       4.96
H      -0.57       4.88       3.45
H      -4.47       2.65       1.67
O       3.85       2.44       9.12
O       2.56       0.65       8.79
O      -2.06       9.40       7.75
O      -3.95       9.44       6.62
O      -1.29       3.27       1.70
O      -6.80       1.98       0.87
C       2.76       1.92       8.71
C       1.70       2.80       8.15
C       1.88       4.19       8.05
C       0.86       5.01       7.59
C      -0.38       4.46       7.20
C      -0.56       3.07       7.30
C       0.46       2.25       7.76
C      -1.46       5.31       6.65
C      -1.63       6.65       7.06
C      -2.67       7.42       6.52
C      -3.56       6.86       5.59
C      -3.41       5.53       5.17
C      -2.36       4.78       5.71
C      -2.90       8.82       6.97
C      -4.36       4.92       4.22
C      -3.93       3.97       3.28
C      -5.73       5.27       4.25
C      -6.63       4.63       3.41
C      -6.20       3.64       2.51
C      -4.83       3.35       2.43
C      -7.18       2.94       1.66
