28

C      -0.16       4.79      14.02
C       0.21       5.01      15.35
C      -0.53       4.42      16.39
C      -1.66       3.62      16.09
C      -2.02       3.42      14.76
C      -1.28       4.00      13.73
H      -5.17       3.54      19.18
H      -2.53       0.15      19.09
C       0.65       5.39      12.92
N      -4.25       5.97      16.80
H       1.08       5.63      15.58
H      -1.56       3.85      12.69
N       0.16       4.77      18.87
C      -0.15       4.63      17.75
O      -4.34      -0.02      20.71
O      -5.78       1.75      20.71
O       0.25       5.17      11.73
O       1.68       6.05      13.26
H      -1.20       1.23      17.27
H      -2.89       2.81      14.53
C      -3.93       1.78      19.23
C      -4.30       3.04      18.76
C      -3.56       3.64      17.74
C      -2.44       2.99      17.19
C      -2.07       1.73      17.69
C      -2.81       1.13      18.70
C      -4.74       1.12      20.30
C      -3.94       4.93      17.23
