16

O       8.61      13.42      14.63
O       6.32      13.34      14.57
C       7.45      13.85      14.29
S       8.97      15.83      13.08
S       5.94      18.13      11.33
C       7.48      20.11      10.14
O       6.34      20.55       9.76
O       8.63      20.62       9.89
F       5.09      15.39      13.08
H       9.58      18.56      11.33
C       6.37      15.76      12.93
C       8.56      18.21      11.48
C       7.45      15.07      13.47
C       7.47      18.88      10.95
C       8.16      17.07      12.20
C       6.76      16.90      12.20
