45

N      29.49      10.19      19.84
N      29.98      10.67      21.04
N      41.90       3.42      13.78
N      42.41       4.60      14.28
H      37.72      -0.40      26.49
H      34.07      -2.03      24.82
H      31.56      10.08      22.33
H      30.03       8.59      18.55
N      38.07       2.85      17.76
N      38.57       5.15      18.24
N      39.50       5.14      17.31
N      38.97       2.85      16.80
H      41.89       5.87      15.89
H      40.31       2.14      14.35
N      33.81       6.68      21.60
N      33.33       6.23      19.28
C      36.85       4.00      19.50
C      35.93       3.10      21.34
C      35.03       4.95      20.43
N      32.91       7.65      21.60
N      32.41       7.17      19.29
N      34.77       1.36      22.56
N      37.06       1.87      23.09
N      37.05       0.95      24.04
N      34.77       0.41      23.48
C      36.83      -0.97      26.26
C      35.90      -0.78      25.22
C      34.95      -1.81      25.41
C      31.01       9.90      21.41
C      31.22       8.90      20.44
C      30.23       9.14      19.47
C      41.67       4.96      15.34
C      40.67       4.00      15.56
C      40.87       3.04      14.55
C      37.89       4.00      18.44
C      39.67       4.00      16.60
C      34.00       6.02      20.44
C      32.22       7.86      20.44
C      35.92       2.04      22.39
C      35.91       0.24      24.20
N      36.90       3.03      20.42
N      34.97       4.03      21.41
N      35.94       4.99      19.45
N      35.31      -2.56      26.46
N      36.47      -2.03      27.00
