13

C       5.05      12.16       8.79
C       4.74      13.30       7.86
H       5.19      12.21       6.05
H       4.47      14.12       4.57
C       4.84      13.15       6.47
C       4.46      14.21       5.65
H       3.67      16.53       7.83
H       4.24      14.67       9.45
C       4.00      15.55       7.49
N       4.04      15.38       6.15
C       4.32      14.53       8.37
O       4.46      12.13       9.92
O       5.90      11.29       8.42
