12

C       5.86       1.82       1.55
C       5.83       8.75       7.67
O       6.98       9.24       7.91
O       4.72       9.10       8.18
C       5.82       2.89       2.51
C       5.80       3.81       3.32
C       5.78       4.82       4.20
C       5.78       5.75       5.02
C       5.78       6.75       5.90
C       5.79       7.67       6.72
O       7.01       1.35       1.27
O       4.74       1.46       1.06
