47

H       4.45      10.40       9.23
C       4.61      13.23      10.88
H      -4.54      10.20       9.51
H       0.05      14.77      12.68
H       2.15      13.85      11.84
C      -6.85      11.72       9.16
H      -4.56      13.88      11.73
H       2.17      10.16       9.59
H       0.04       8.97       9.15
H      -2.43       8.97       9.15
H      -6.69      10.76       8.68
C      -2.61      15.17      12.83
C      -3.04      16.28      11.84
C      -1.87      17.04      11.23
H       4.38      14.11      11.46
N       5.90      11.85       9.74
N       5.87      13.02      10.45
N      -7.90      12.49       8.81
N      -7.87      13.62       9.56
H      -1.27      17.53      12.02
H      -6.59      14.39      11.05
H      -1.20      16.38      10.68
H      -2.22      17.82      10.54
H      -3.64      15.83      11.03
H      -3.71      16.98      12.37
H      -3.49      14.81      13.38
H      -1.95      15.63      13.59
C      -6.79      13.57      10.37
C       4.65      11.34       9.74
C      -6.08      12.38      10.14
C       3.78      12.17      10.46
C      -4.01      10.96      10.08
C      -4.71      12.08      10.57
C      -4.01      13.03      11.33
C      -2.62      12.98      11.50
C      -1.90      11.90      10.89
C      -2.62      10.86      10.22
C      -1.88      14.02      12.19
C      -0.51      13.98      12.18
C       0.23      12.96      11.51
C      -0.49      11.89      10.89
C       0.24      10.85      10.22
C      -0.51       9.78       9.63
C      -1.88       9.78       9.63
C       1.62      13.01      11.39
C       2.34      12.03      10.67
C       1.63      10.95      10.13
