16

C      18.39      -0.30      21.45
S      18.50      -3.97      17.43
S      18.30      -3.05      21.52
O      18.22      -7.80      18.22
C      18.32      -5.28      19.67
C      18.46      -1.73      19.29
C      18.38      -5.48      18.30
C      18.39      -6.73      17.54
C      18.44      -3.09      18.91
C      18.35      -3.92      20.04
F      18.24      -6.27      20.58
C      18.40      -1.54      20.66
F      18.54      -0.73      18.39
O      18.32      -0.48      22.72
O      18.44       0.81      20.83
O      18.58      -6.63      16.28
