54

H       4.74       5.60       7.83
H       6.06      -5.60       7.83
H       6.03       5.61      11.75
H       4.75      -5.61      11.75
H       4.76       3.08       7.73
H       6.05      -3.08       7.74
H       6.01       3.10      11.86
H       4.77      -3.10      11.86
H       8.58       0.69       7.80
H       7.70       2.22       7.69
H       9.38       2.21       8.27
H       7.81       2.47      10.19
H       8.70       0.97      10.33
H       2.22      -0.69       7.78
H       3.11      -2.22       7.69
H       1.42      -2.21       8.25
H       2.09      -0.96      10.31
H       2.98      -2.47      10.18
H       1.43       2.19      11.39
H       2.26       0.68      11.86
H       3.12       2.22      11.93
H       2.96       2.45       9.44
H       2.07       0.94       9.33
H       8.53      -0.68      11.88
H       7.66      -2.22      11.94
H       9.36      -2.18      11.41
H       8.72      -0.94       9.34
H       7.84      -2.45       9.45
C       5.03       5.00       8.69
C       5.77      -4.99       8.69
C       5.74       5.00      10.90
C       5.05      -5.00      10.89
C       5.03       3.61       8.65
C       5.77      -3.60       8.65
C       5.74       3.61      10.94
C       5.05      -3.61      10.94
C       5.39       2.88       9.80
C       5.41      -2.88       9.80
C       6.63       0.71       9.81
C       4.17      -0.71       9.80
C       4.16       0.70       9.81
C       6.63      -0.70       9.82
C       5.40      -1.39       9.81
C       5.39       1.39       9.81
C       7.93       1.48       9.73
C       8.43       1.66       8.29
C       2.86      -1.48       9.72
C       2.37      -1.66       8.28
C       2.85       1.46       9.90
C       2.39       1.65      11.36
C       7.94      -1.46       9.92
C       8.40      -1.64      11.37
N       5.38       5.68       9.79
N       5.41      -5.68       9.79
