16

C      18.67      14.79       2.03
Br      18.80       8.47       2.62
Br      18.54      14.79       5.53
O      18.78      14.60       0.77
O      18.64       7.35       5.52
O      18.56      15.91       2.63
O      18.65       8.67       7.39
C      18.62      13.43       4.24
C      18.66       9.69       5.29
C      18.71       9.84       3.91
C      18.63      12.07       4.62
C      18.70      11.20       3.52
C      18.65       8.48       6.12
S      18.75      12.04       2.03
C      18.67      13.57       2.86
S      18.60      11.22       6.12
