22

C      10.34       8.51      11.06
H      12.30      10.34       8.21
C      12.46       9.16       9.98
C      11.78       8.51      11.05
C      11.75       9.82       9.00
C      10.35       9.83       9.01
C       9.65       9.17      10.00
H      13.55       7.89      12.14
H       8.57       7.93      12.17
H      12.32       6.92      14.04
H       9.82       6.94      14.06
H       9.80      10.34       8.22
O      14.54       8.01       9.91
O       7.57       8.03       9.92
O      14.54      10.28       9.82
O       7.58      10.30       9.85
C      13.96       9.15       9.90
C       8.15       9.16       9.92
C      12.47       7.91      12.15
C       9.66       7.92      12.16
C      11.77       7.36      13.20
C      10.36       7.36      13.21
