12

C       4.78       4.49      19.85
C       5.12       0.51      24.81
C       4.84       3.74      20.82
C       5.06       1.30      23.88
C       4.91       2.92      21.88
C       4.98       2.15      22.84
C       4.79       5.35      18.69
O       3.67       5.83      18.33
C       5.11      -0.43      25.91
O       6.22      -0.99      26.19
O       5.93       5.54      18.16
O       3.98      -0.60      26.46
