23

H       3.05       9.33       5.41
H      -0.65       8.08       3.53
C      -0.37      11.15       3.46
C       0.74      10.70       4.12
C      -0.96      12.46       3.59
C      -0.53      13.45       4.42
H      -3.36      14.53       3.96
C       0.36      15.49       6.56
N       2.09       7.46       5.14
N       0.91       7.07       4.54
N      -1.96      16.23       6.31
H      -0.95      10.43       2.89
H       1.37      11.42       4.65
H      -1.91      12.60       3.06
H       0.42      13.32       4.94
N      -3.01      15.90       5.53
N       1.41      15.46       7.06
C       2.19       8.80       5.00
C       0.31       8.17       4.04
C       1.08       9.32       4.31
C      -0.90      15.45       5.93
C      -2.64      14.93       4.66
C      -1.30      14.58       4.88
