20

H       3.61      14.82       9.88
H       3.42      15.76      13.91
H       1.15      15.06       9.60
H       0.93      16.02      13.82
C       2.97      15.07      10.73
H      -0.91      14.08      10.14
C       2.86      15.61      12.98
H      -0.82      17.29      13.04
C       1.59      15.20      10.58
H      -3.40      14.30      10.13
H      -3.30      17.39      12.89
C       1.48      15.76      12.92
C       0.82      15.55      11.70
C      -0.65      15.67      11.61
C      -1.40      14.83      10.77
C      -1.35      16.60      12.39
C      -2.78      14.94      10.75
C      -2.73      16.66      12.31
N       3.59      15.27      11.90
N      -3.44      15.84      11.52
