28

Br       2.03      18.37      15.03
Br       2.03      23.55      25.30
N       1.99      20.94      19.53
N       1.99      20.97      20.80
H       2.10      16.29      19.62
H       2.05      18.50      20.82
H       1.99      20.53      17.03
H       1.99      21.39      23.30
H       2.05      23.41      19.51
H       2.10      25.62      20.71
O       1.01      26.35      24.09
O       2.90      26.91      22.98
O       1.01      15.56      16.24
O       2.90      15.00      17.35
C       1.97      26.10      23.31
C       1.97      15.81      17.02
C       2.01      17.16      17.66
C       2.06      17.23      19.07
C       2.03      18.45      19.73
C       2.00      19.64      18.98
C       1.99      19.59      17.58
C       1.98      18.36      16.93
C       1.99      22.32      22.75
C       2.00      22.27      21.35
C       2.03      23.47      20.60
C       2.06      24.68      21.26
C       2.01      24.75      22.67
C       1.98      23.55      23.40
