28

H      11.98       7.66      16.78
H      14.48       7.41      16.91
H      14.77      10.72      14.15
H      18.96       7.45      17.28
H      21.68      10.11      14.19
H      19.18      10.25      14.00
C      12.65       8.31      16.21
C      14.03       8.18      16.28
C      14.83       9.05      15.53
C      14.18      10.03      14.74
C      12.79      10.11      14.73
C      16.24       8.97      15.56
C      17.46       8.91      15.60
C      18.87       8.85      15.64
C      19.53       8.05      16.58
C      20.93       8.02      16.63
C      21.03       9.54      14.85
C      19.65       9.61      14.75
C      12.09      11.17      13.94
C      21.65       7.15      17.61
N      12.04       9.25      15.45
N      21.66       8.77      15.76
H      12.77      11.66      13.24
H      11.23      10.75      13.39
H      11.68      11.92      14.62
H      22.00       6.23      17.11
H      22.55       7.65      17.99
H      20.99       6.87      18.44
