16

O      10.67       1.73      18.74
O      10.72       1.73      21.01
O       7.45       7.84      21.17
O       7.40       7.85      18.90
H       9.78       3.68      22.07
H       8.61       5.90      22.14
H       8.54       6.00      17.84
H       9.71       3.77      17.77
C      10.45       2.25      19.89
C       9.80       3.60      19.92
C       9.51       4.20      21.15
C       8.86       5.43      21.19
C       8.50       6.07      19.99
C       8.82       5.48      18.76
C       9.46       4.25      18.72
C       7.73       7.35      20.02
