33

C       4.06      13.61       5.04
O       2.13      16.93       8.54
O       1.23      15.62      10.15
O       1.30      10.65       9.62
O       2.48       9.81       7.87
H       1.39      13.19       9.73
H       3.29      11.38       6.33
H       3.10      15.67       6.66
H       4.72      12.74       4.99
O       2.13      10.30       1.54
O       1.23      11.61      -0.08
O       1.30      16.57       0.45
H       1.39      14.03       0.34
H       3.29      15.85       3.74
H       3.10      11.56       3.41
H       4.72      14.49       5.08
O       2.48      17.41       2.20
C       2.21      14.55       8.27
C       1.91      13.29       8.78
C       2.29      12.15       8.06
C       2.97      12.28       6.85
C       3.27      13.53       6.32
C       2.88      14.67       7.04
C       1.83      15.79       9.02
C       1.99      10.78       8.55
C       2.21      12.67       1.81
C       1.91      13.94       1.29
C       2.29      15.07       2.01
C       2.97      14.95       3.22
C       3.27      13.69       3.75
C       2.88      12.56       3.04
C       1.83      11.43       1.05
C       1.99      16.44       1.51
