30

H       0.86      19.02       7.46
H       0.88      16.81       8.59
H       3.05      15.13       5.26
H       3.13      17.39       4.20
H       3.05      13.51      11.28
H       0.88      11.83       7.94
H       0.86       9.62       9.08
H       3.13      11.26      12.34
O       2.95       8.75      12.28
O       1.07       8.16      11.15
O       2.95      19.89       4.26
O       1.07      20.48       5.38
F       2.06      13.47       6.71
F       2.05      15.18       9.83
C       2.01       8.98      11.45
C       2.01      19.66       5.09
C       2.00      18.34       5.76
C       1.37      18.17       7.00
C       1.37      16.93       7.63
C       1.98      15.82       7.01
C       2.58      15.99       5.75
C       2.62      17.24       5.15
C       1.97      14.50       7.61
C       1.97      14.15       8.92
C       2.58      12.65      10.79
C       1.98      12.82       9.53
C       1.37      11.71       8.90
C       1.37      10.48       9.54
C       2.00      10.31      10.77
C       2.62      11.40      11.39
