32

H       3.17       4.90       1.06
H       7.97       0.37       7.95
H       6.21       2.11       7.87
H       3.53       5.44       5.31
H       4.88       3.14       1.10
C       5.22       4.27       6.96
C       8.10       1.09       4.61
C       8.44       0.56       5.85
C       7.71       0.87       7.02
C       6.74       1.83       6.96
C       6.35       2.42       5.72
C       6.89       1.89       4.48
C       5.42       3.48       5.69
C       4.84       3.90       4.47
C       5.21       3.21       3.26
C       6.21       2.20       3.28
C       3.85       4.92       4.41
C       3.27       5.22       3.21
C       3.64       4.60       1.99
C       4.59       3.61       2.03
C       6.27       1.35       2.02
N       9.64      -0.28       6.04
N       2.19       6.23       3.18
Cl       9.25       1.04       3.36
O       6.31       4.55       7.54
O       4.06       4.61       7.34
O       5.16       0.79       1.72
O       7.33       1.30       1.33
O      10.23      -0.13       7.13
O       9.97      -1.08       5.16
O       1.72       6.54       2.07
O       1.82       6.72       4.26
