21

H      25.35       4.98      13.99
H      25.70      10.90      11.16
H      24.14      11.71      11.39
H      25.12      11.21      12.81
H      26.45       9.13      13.51
C      27.24       6.71      14.65
C      26.04       7.03      13.84
C      25.14       5.97      13.58
C      23.80       7.30      12.35
C      22.94       9.28      11.14
C      22.04      10.07      10.29
C      24.12       9.60      11.80
C      24.80      10.93      11.79
C      24.63       8.45      12.51
C      25.77       8.30      13.31
S      22.41       7.63      11.37
N      24.02       6.09      12.86
O      27.56       5.47      14.66
O      27.85       7.65      15.26
O      22.41      11.22       9.86
O      20.92       9.50      10.05
