16

O      25.39      11.60      18.91
O      24.28      12.27      17.02
S      21.97      13.43      18.30
S      21.23      13.60      22.42
C      24.41      12.14      18.29
F      24.07      12.16      21.34
C      23.17      12.67      20.48
C      20.01      14.37      20.22
C      18.79      14.91      22.40
C      19.89      14.36      21.60
C      21.21      13.75      19.82
H      19.25      14.80      19.57
C      21.98      13.29      20.91
C      23.32      12.67      19.10
O      17.83      15.46      21.76
O      18.89      14.78      23.67
