46

H      19.39      16.22       9.85
H      17.27      16.41       8.23
H       9.64      16.76       8.23
H      11.76      16.58       9.88
H      10.80      17.34       4.52
H       8.55      16.18       6.28
H      12.33      16.22       3.84
H      14.47      16.99       5.92
H      16.72      17.27      14.22
H      14.58      16.33      12.21
H      18.24      16.04      13.64
H      20.59      16.42      11.69
H      13.97      16.67      10.49
H      15.08      16.55       7.63
C      17.92      16.36      11.49
C      18.36      16.33      10.16
C      17.25      16.40       9.31
C      16.10      16.48      10.11
C      11.14      16.79       6.62
C      10.68      16.72       7.94
C      11.79      16.66       8.79
C      12.95      16.70       8.01
C      20.96      16.10      13.78
C      14.58      16.99      14.64
C      14.47      16.53       3.44
C       8.14      16.82       4.26
C      10.35      16.93       5.43
C       9.04      16.61       5.40
C      13.27      16.49       4.31
C      13.45      16.76       5.62
C      15.78      16.99      13.76
C      15.60      16.59      12.49
C      18.72      16.21      12.67
C      20.08      16.25      12.63
C      14.73      16.59       9.71
C      14.32      16.62       8.41
N      16.52      16.46      11.45
N      12.54      16.78       6.67
O      22.23      16.17      13.52
O      20.47      15.94      14.95
O      13.43      17.05      14.10
O      14.81      16.88      15.90
O      15.61      16.69       4.00
O      14.26      16.38       2.19
O       6.91      16.57       4.48
O       8.62      17.24       3.14
