16

C      19.18       5.82      22.14
O      20.16       5.09      22.50
O      18.97       7.03      22.50
H      15.29       5.94      19.54
C      16.33       4.05      19.46
C      16.16       5.37      19.90
H      17.56       2.29      19.54
C      17.08       5.95      20.77
C      17.44       3.31      19.89
C      18.36       3.89      20.76
H      16.96       6.97      21.11
O      14.35       4.17      18.17
C      18.18       5.21      21.21
O      15.56       2.23      18.15
H      19.23       3.32      21.11
C      15.34       3.44      18.52
