16

C       0.44       8.73      10.04
C       0.02       8.33      13.59
C       1.43       9.68      10.23
C      -0.94       7.36      13.37
C       0.52       8.83      12.37
C      -0.08       8.23      11.25
O       1.95      10.04       8.00
O      -1.30       6.87      15.61
O      -2.49       5.71      14.04
H       0.33       8.62      14.59
S       1.72       9.99      11.92
S      -1.26       7.05      11.69
O       3.11      11.21       9.58
F       0.02       8.29       8.84
C      -1.64       6.59      14.41
C       2.22      10.37       9.20
