42

H       1.65       1.90       8.99
H      12.37      -1.72       7.05
H       2.06      -2.34       9.04
H      11.88       2.51       6.90
H       9.38       3.31       8.25
H       4.61      -3.16       7.83
H       5.14       3.63       8.21
H       8.85      -3.49       7.72
C       6.63      -4.92       7.66
C       6.95      -0.63       7.98
C       8.34       1.40       8.06
C       5.66      -1.26       7.97
C       4.57       0.94       8.10
C       9.42      -0.79       7.91
C       4.48      -0.43       8.06
C       9.52       0.58       7.95
C       7.35       5.07       8.31
C       7.27       3.57       8.25
C       6.73      -3.42       7.75
C       8.42       2.80       8.20
C       5.58      -2.65       7.85
C       6.01       2.98       8.19
C       3.33       1.78       8.12
C      10.67      -1.62       7.88
C       3.12      -1.09       8.05
C      10.86       1.26       7.95
C       7.99      -2.83       7.79
C       5.87       1.59       8.10
C       8.13      -1.44       7.91
C       7.05       0.78       8.05
O       7.73      -5.54       7.46
O       3.09       2.72       7.37
O       6.23       5.67       8.18
O       2.47       1.38       9.08
O      10.90      -2.59       8.61
O      11.55      -1.19       6.95
O       2.30      -0.95       7.16
O       2.93      -1.88       9.13
O      11.70       1.16       8.83
O      11.02       2.02       6.84
O       5.49      -5.45       7.80
O       8.48       5.62       8.46
