26

O       7.81       2.72      14.12
O       6.66       1.66      15.76
O       2.08       6.68      15.76
O       3.14       7.73      14.04
H       7.00       5.02      16.13
H       5.86       4.01      17.03
H       4.31       5.77      17.00
H       5.45       6.76      16.07
H       2.69       4.26      15.81
H       2.64       4.19      14.05
H       4.26       2.51      15.81
H       4.22       2.48      14.05
H       6.98       4.98      13.59
H       5.86       3.94      12.73
H       4.27       5.65      12.70
H       5.40       6.70      13.54
C       6.83       2.61      14.92
C       3.00       6.78      14.88
C       5.98       4.63      16.12
C       4.94       5.78      16.10
C       4.03       5.65      14.85
C       3.32       4.28      14.91
C       4.36       3.14      14.92
C       5.79       3.72      14.88
C       5.96       4.58      13.62
C       4.91       5.72      13.59
