80

H       8.73      13.12       7.82
H       2.21      16.55       9.31
H      12.76      13.20       6.04
H      -1.82      16.47      11.09
H      10.04      17.25       6.95
H       0.89      12.42      10.18
H      13.74      15.45       5.64
H      -2.80      14.22      11.49
H      12.33      17.48       6.06
H      -1.40      12.20      11.08
H       6.84      16.34       9.97
H       4.10      13.34       7.16
H       7.82      16.45       6.54
H       3.12      13.22      10.59
H       8.29      16.77       8.24
H       2.64      12.90       8.90
H       5.45      13.67       5.30
H       5.48      16.00      11.83
H       7.18      13.75       5.71
H       3.76      15.92      11.42
H       6.34      15.21       5.20
H       4.60      14.47      11.93
H       9.26      10.26       7.16
H       1.67      19.42       9.97
H       7.64      10.98       6.98
H       3.30      18.70      10.16
H      10.08       9.60       9.35
H       0.85      20.08       7.78
H       6.37      11.76       9.00
H       4.57      17.91       8.13
H       7.50      10.02      12.78
H       3.44      19.65       4.35
H       5.90      11.34      11.39
H       5.04      18.33       5.74
H       9.58       9.12      11.73
H       1.35      20.55       5.40
C      10.86      13.93       6.69
C       0.08      15.75      10.44
C      10.09      15.09       6.97
C       0.84      14.58      10.16
C      12.17      14.09       6.22
C      -1.23      15.58      10.91
C      10.63      16.36       6.73
C       0.31      13.31      10.40
C      12.71      15.35       6.00
C      -1.78      14.32      11.13
C      11.93      16.48       6.24
C      -0.99      13.19      10.89
C      10.34      12.54       6.77
C       0.59      17.14      10.36
C       6.62      15.42       8.04
C       4.31      14.25       9.09
C       6.23      15.67       9.36
C       4.71      14.00       7.78
C       7.91      16.01       7.55
C       3.03      13.66       9.59
C       5.85      14.57       7.22
C       5.08      15.10       9.92
C       6.22      14.28       5.79
C       4.72      15.39      11.34
C       8.26      10.70       9.02
C       2.68      18.97       8.11
C       8.57      11.00       7.57
C       2.37      18.68       9.56
C       9.16       9.96       9.80
C       1.78      19.71       7.33
C       7.08      11.19       9.60
C       3.85      18.48       7.53
C       7.71      10.21      11.72
C       3.22      19.46       5.41
C       6.82      10.96      10.95
C       4.12      18.72       6.18
C       8.88       9.71      11.14
C       2.05      19.97       5.99
N       9.19      12.31       7.43
N       1.74      17.37       9.71
O      10.97      11.60       6.20
O      -0.03      18.08      10.94
O       8.84      14.90       7.47
O       2.09      14.77       9.66
