24

N      13.44       4.18      16.18
N      10.94       4.38      17.07
O      17.45       4.16      15.40
C      16.76       4.83      14.57
O      17.19       5.47      13.55
C      15.28       4.86      14.81
C      14.74       4.16      15.89
O       6.35       4.49      16.42
C      12.59       4.90      15.41
O       7.00       4.65      18.59
H      15.38       3.57      16.55
C      13.06       5.63      14.31
H      12.37       6.23      13.71
C      14.41       5.61      14.01
C      11.17       4.90      15.84
H      14.82       6.19      13.18
C      10.13       5.40      15.06
H      10.31       5.79      14.06
H       9.58       3.94      18.56
C       9.70       4.36      17.56
C       8.60       4.82      16.83
H       7.98       5.64      14.94
C       8.83       5.33      15.55
C       7.20       4.65      17.34
