14

C       0.35       5.68       5.88
O       1.28       8.78      11.54
C      -0.31       7.41      10.48
H       1.41       7.78       9.34
C       0.10       8.27      11.62
O       1.07       5.76       4.82
C       0.05       6.53       8.20
C       0.79       6.45       7.06
H      -0.91       6.01       8.22
H       1.74       6.97       6.97
O      -0.70       4.95       5.99
O      -0.72       8.45      12.56
C       0.44       7.27       9.36
H      -1.29       6.93      10.56
