15

C       6.46       1.34      10.81
H       5.49       1.77      11.11
H       5.77      -0.60      11.77
O       7.52       2.06      12.76
C       6.51      -0.18      11.08
H       7.52      -0.52      11.38
C       6.27      -0.32       9.57
H       7.42       1.33       8.94
H       5.22      -0.58       9.33
N       6.49       1.14       9.34
C       7.09      -1.33       8.80
O       7.30      -2.44       9.39
O       7.46      -1.02       7.61
C       7.49       2.20      11.49
O       8.20       2.99      10.79
