27

C      16.55      14.87      11.68
C      18.77      15.22       8.53
C      14.30      11.87      12.62
O      20.30      15.70       6.79
H      18.45      16.55      10.19
C      17.29      14.72      10.37
O      12.85      12.23      14.46
O      20.07      17.21       8.47
H      14.64      13.75      13.61
C      16.05      12.77      10.64
H      17.30      12.16       8.07
O      13.15      10.11      13.70
C      18.18      15.59       9.75
H      18.91      13.74       6.98
C      15.77      13.58      11.76
C      14.89      13.14      12.74
C      16.98      13.48       9.77
H      15.68      10.87       9.64
C      17.55      13.11       8.54
H      14.12      10.08      11.44
C      18.44      13.99       7.93
H      17.23      14.99      12.53
C      15.46      11.50      10.51
H      15.89      15.75      11.68
C      14.60      11.06      11.51
C      13.36      11.37      13.67
C      19.78      16.11       7.88
