15

H       9.37       1.29       4.40
H       8.07       2.23       6.33
C      11.35       2.58       3.06
C      10.62       3.05       4.23
C       9.60       2.27       4.80
C       8.89       2.79       5.87
H      11.66       4.94       4.36
C      10.88       4.31       4.78
C      10.12       4.76       5.85
H      10.24       5.75       6.30
N      11.96       1.40       1.43
N      12.64       2.54       1.40
N      12.29       3.31       2.41
N      11.14       1.39       2.46
N       9.14       4.01       6.39
