32

N       9.47      12.02       7.90
N      15.40       8.12       7.50
N      16.27       0.93       8.63
H      12.53       0.04       6.04
H      12.62      12.03       8.63
H       9.24      10.63       6.31
O      16.44       7.63       7.98
O      15.06       9.31       7.63
H      15.68       5.54       7.33
H      11.80       7.18       4.69
H      12.34       4.76       4.69
O      16.51       2.14       8.65
O      17.03       0.07       9.19
C      15.12       0.44       7.98
C      13.38       0.02       6.71
C      14.22       1.09       7.09
C      11.65      11.84       8.19
C       9.91      11.12       7.00
C      11.31      10.95       7.15
C      14.52       7.23       6.73
C      13.37       7.73       6.06
C      12.65       6.81       5.26
C      12.95       5.46       5.27
C      14.00       4.96       6.07
C      14.83       5.88       6.75
C      12.82       9.01       6.26
C      14.15       3.58       6.31
C      14.20       2.41       6.66
C      12.11       9.96       6.58
N      14.83      -0.87       8.11
N      13.77      -1.12       7.33
N      10.54      12.47       8.62
