46

O       3.04      27.99      17.85
O       1.09      28.99      18.43
O       3.04      18.99      24.18
O       1.09      19.00      23.02
H       0.80      25.88      19.21
H       0.80      24.60      21.32
H       3.26      27.62      23.13
H       3.26      23.75      21.86
H       0.80      21.22      25.33
H       0.80      23.69      25.38
H       3.26      24.58      25.84
H       0.80      28.85      26.30
H       0.80      27.66      24.13
H       3.97      29.30      20.10
H       4.13      29.30      21.75
H       3.97      20.28      21.92
H       4.13      21.72      21.09
H       3.97      26.37      28.82
H       4.13      24.94      27.99
C       2.07      28.17      28.58
C       2.07      28.19      18.66
C       2.07      19.59      23.60
C       1.37      26.25      20.06
C       1.35      25.53      21.25
C       2.02      26.03      22.38
C       2.72      27.24      22.27
C       2.79      27.95      21.07
C       2.08      27.45      19.95
C       2.72      23.20      22.62
C       2.79      21.80      22.61
C       2.08      21.08      23.60
C       1.37      21.78      24.58
C       1.35      23.17      24.61
C       2.02      23.90      23.61
C       2.72      25.52      25.94
C       2.79      26.21      27.16
C       2.08      27.42      27.29
C       1.37      27.93      26.19
C       1.35      27.25      24.97
C       2.02      26.03      24.84
N       2.00      25.32      23.61
N       3.49      29.15      20.98
N       3.49      21.13      21.61
N       3.49      25.68      28.24
O       1.09      27.97      29.38
O       3.04      28.97      28.80
