42

C      14.60      10.07       2.95
C      13.91       8.87       2.55
C      12.96       8.23       3.44
C      12.65       8.84       4.71
C      13.32      10.06       5.10
C      14.32      10.65       4.25
C      15.56      10.87       2.35
C      15.13      11.76       4.38
C      12.78      10.47       6.31
C      11.73       8.55       5.71
H      10.21       7.67       8.35
H      10.92      11.95       8.10
C      12.49       7.09       2.79
C      13.97       8.10       1.40
N       9.73      10.71       9.36
N       9.50       9.36       9.42
H      13.81       4.14       1.23
H      11.93       7.27      -1.11
H      17.92      12.98       5.01
H      16.55      13.72       0.96
N      12.47       5.25      -1.50
N      13.06       4.26      -0.76
N      18.03      14.60       2.21
N      18.45      14.37       3.49
N      15.88      11.89       3.23
N      11.82       9.55       6.67
N      13.11       7.03       1.55
H      16.09      10.78       1.40
H      15.21      12.51       5.17
H      13.01      11.32       6.94
H      10.99       7.77       5.81
H      11.77       6.34       3.08
H      14.55       8.20       0.49
C      10.23       8.75       8.47
C      10.95       9.72       7.76
C      10.61      10.94       8.35
C      13.33       4.75       0.47
C      12.91       6.08       0.53
C      12.37       6.35      -0.73
C      17.75      13.34       4.00
C      16.84      12.90       3.04
C      17.05      13.71       1.92
