26

C       3.53       2.21       4.15
C       4.69       4.12       2.39
H       4.44       0.99       6.78
H       3.94       5.90       0.01
H       1.72       3.38       3.87
H       6.51       2.96       2.66
H       5.50       1.32       4.21
H       2.72       4.98       2.32
N       2.50       0.20       7.06
N       5.55       7.18       0.53
N       1.33       0.22       6.32
N       6.55       7.13       1.47
H       0.89       1.45       3.50
H       6.89       4.89       3.64
C       3.45       0.85       6.37
O       0.55       1.04       4.32
C       4.80       6.06       0.66
O       7.23       5.71       3.21
C       1.59       0.89       5.20
C       6.41       5.98       2.15
C       2.92       1.34       5.15
C       5.30       5.24       1.68
C       2.76       3.23       3.56
C       5.46       3.07       2.94
C       4.89       2.13       3.80
C       3.32       4.16       2.69
