37

C      11.96       7.12      17.14
C      13.66       8.22      26.40
H      11.21       9.31      22.39
C      11.58       8.45      20.45
C      11.75       8.55      21.83
C      10.72       9.42      19.73
C      10.91      10.80      19.92
C      10.14      11.72      19.22
C       9.17      11.28      18.31
C       8.97       9.91      18.12
C       9.74       8.98      18.84
H      13.92       5.95      22.36
H      11.69      11.15      20.61
H      10.31      12.79      19.37
C      13.49       4.19      20.11
C      14.29       3.30      19.19
H       9.56       7.92      18.69
H       8.59      12.00      17.74
H       8.22       9.55      17.42
O      13.37       9.35      26.94
O      14.44       7.34      26.90
H      12.40       4.01      20.00
H      13.76       4.03      21.16
H      15.36       3.52      19.27
H      14.13       2.25      19.46
H      13.98       3.44      18.14
O      10.61       7.64      15.33
O      11.86       5.74      15.29
C      13.26       6.63      21.83
C      13.09       6.51      20.45
C      12.27       7.42      19.74
C      12.60       7.66      22.53
C      12.84       7.82      23.92
O      13.75       5.56      19.72
C      13.12       7.96      25.10
C      12.13       7.27      18.34
C      11.47       6.83      15.83
