32

H       9.53       6.25      12.68
H       9.38       6.16      15.17
H      13.43       4.70      15.31
H       9.20       5.07      19.59
H      13.20       6.60      22.10
H      13.30       6.44      19.60
H      13.93       4.81      11.74
H      14.64       4.44      13.30
H       8.70       5.44      23.16
H       8.02       4.96      21.63
C      11.22       5.94      23.72
C      11.57       5.73      11.12
C      11.54       5.54      12.58
C      10.37       5.89      13.27
C      10.28       5.84      14.65
C      11.41       5.43      15.40
C      12.57       5.03      14.73
C      12.67       5.07      13.32
C      11.37       5.47      16.82
C      11.30       5.57      18.03
C      11.25       5.71      19.44
C      10.08       5.41      20.14
C       9.99       5.53      21.55
C      11.17       5.93      22.25
C      12.33       6.25      21.53
C      12.40       6.16      20.15
N      13.82       4.64      12.73
N       8.83       5.19      22.18
O      10.13       6.13      24.36
O      10.48       6.06      10.53
O      12.70       5.58      10.51
O      12.35       5.73      24.28
