29

C       7.21      11.71       6.59
C       8.23      11.03       2.35
C       8.80      12.47       4.18
H       6.90      12.53       3.15
C       8.42      13.43       5.28
H       6.91      11.48       5.56
C      10.06      11.86       4.20
H       7.55      10.67       1.58
C      10.32      10.82       3.33
H       9.18      14.21       5.40
C       8.09      10.58       8.70
H       7.45      13.91       5.06
C       7.60      10.38       7.26
H      10.84      12.16       4.91
C       8.59       9.57       6.42
H      11.27      10.29       3.33
H       8.97      11.23       8.75
H       8.35       9.62       9.15
N       9.41      10.39       2.42
H       7.31      11.05       9.31
N       8.31      12.71       6.58
H       6.66       9.81       7.30
O       4.94      11.54       7.20
H       8.22       9.44       5.39
O       5.98      13.46       7.75
H       8.72       8.57       6.85
H       9.58      10.04       6.36
C       5.95      12.31       7.23
C       7.88      12.07       3.21
