28

C       3.27       4.05       7.32
H       3.33       1.98       7.93
H       2.86       1.09       5.68
H       3.25       5.98       6.33
H       2.09       6.40       8.70
C       4.67       4.53       9.46
H       0.51       3.40       2.71
C       2.92       1.19       2.87
H       5.42       3.74       9.46
S       2.73       5.60       3.63
H       3.83       0.67       3.15
H       3.28       4.18       2.14
N       4.77       5.57      10.32
N       2.14       0.75       1.87
C       2.38       2.37       3.42
N       3.71       6.41      10.08
N       1.09       1.61       1.73
O       1.37       5.60       3.14
O       3.36       6.81       4.05
O       3.70       5.00       2.49
C       3.21       2.67       7.10
C       2.96       2.17       5.82
C       1.23       2.60       2.64
C       2.75       3.00       4.70
C       2.98       5.90       9.07
C       3.57       4.70       8.60
C       2.87       4.39       4.94
C       3.11       4.90       6.21
