28

C       4.79       4.91       9.37
C       4.97       4.89       3.74
O       3.77       4.74      10.13
O       5.81       5.57       9.73
O       5.99       4.70       2.97
O       3.95       5.55       3.38
H       1.88       3.05       7.64
H       2.25       4.27       8.86
H       1.51       4.74       7.30
H       7.88       3.03       5.48
H       7.51       4.24       4.24
H       8.26       4.72       5.81
C       4.79       4.40       7.95
C       4.97       4.38       5.16
C       3.61       4.23       7.18
C       6.15       4.22       5.93
C       3.71       4.19       5.78
C       6.05       4.20       7.33
H       1.76       4.74       4.98
H       2.69       3.63       3.94
H       1.94       3.04       5.45
H       8.00       4.75       8.13
H       7.08       3.65       9.17
H       7.83       3.06       7.67
C       2.24       4.08       7.79
C       7.52       4.06       5.32
C       2.46       3.89       4.98
C       7.30       3.91       8.13
