16

C      13.62      14.72      22.13
O      13.41      14.57      23.38
O       8.81      11.71      19.05
O      14.60      15.35      21.60
O      10.00      12.48      17.26
C      10.78      12.95      19.45
C      12.63      14.11      21.19
C      11.89      13.64      18.94
C       9.79      12.33      18.51
C      12.81      14.22      19.81
C      10.60      12.84      20.83
H      12.02      13.72      17.86
C      11.52      13.41      21.70
H      13.68      14.76      19.43
H       9.74      12.30      21.21
H      11.40      13.34      22.78
