30

Cl       6.27       8.60       0.16
Cl      10.55       8.77      -0.16
H       9.91       8.74      -4.76
H      10.06       8.75      -2.34
H       5.75       8.58      -2.10
H       5.63       8.57      -4.54
H      11.07       8.79       2.10
H       6.76       8.62       2.34
H       6.91       8.63       4.76
H      11.18       8.80       4.54
O       6.54       8.52      -6.85
O       8.79       8.75      -6.96
O      10.28       8.84       6.85
O       8.02       8.63       6.96
C       7.69       8.64      -6.32
C       9.12       8.73       6.32
C       7.76       8.65      -4.83
C       8.99       8.70      -4.17
C       9.07       8.71      -2.78
C       7.91       8.66      -1.96
C       6.68       8.61      -2.66
C       6.60       8.60      -4.05
C       7.90       8.66      -0.47
C       8.91       8.71       0.47
C      10.14       8.76       2.66
C       8.90       8.71       1.96
C       7.74       8.66       2.78
C       7.82       8.67       4.17
C       9.05       8.72       4.83
C      10.21       8.77       4.05
