43

H      13.28      -1.50       9.43
H      14.26      -0.89      10.79
H      13.03      -2.71      14.19
H      11.25      -1.31      10.59
H      11.90      -3.66       9.98
H      10.46      -3.14      11.75
H      14.37      -3.95      12.81
H      15.26      -2.50      12.39
H      11.42      -6.91      14.29
H      12.59      -4.85      11.09
H      10.12      -5.99      15.06
H       9.72      -7.29      13.92
H       9.45      -5.03      12.82
H      10.74      -5.96      12.04
H      12.43      -4.73      13.44
H      11.12      -3.82      14.20
H      10.53       1.29      12.30
H      16.08      -0.34      13.22
C      14.66      -3.62       9.97
C      10.85      -1.19      13.44
C      11.95      -1.82      12.56
C      11.49      -3.27      12.12
C      13.41      -1.54      10.52
C      12.13      -1.06      11.21
C      12.38      -3.78      10.96
C      14.25      -2.94      12.40
C      13.30      -2.11      13.31
C      13.71      -2.98      10.97
C      11.43      -4.30      13.27
C      10.46      -5.45      12.98
C      10.42      -6.47      14.12
S      12.14       0.76      11.03
S      14.31      -0.88      14.23
O      14.40      -3.44       8.74
O      15.65      -4.32      10.40
O      13.01       1.40      11.97
O      12.30       0.96       9.61
O      10.97       0.02      13.79
O      10.62       1.19      11.32
O      13.50       0.07      14.92
O      15.27      -1.69      14.95
O      15.15      -0.09      13.08
O       9.84      -1.93      13.75
