24

O      -2.68      25.02      14.31
O      -6.44      22.88       8.36
O      -7.65      22.29      10.20
O      -1.45      25.52      12.45
H      -6.61      22.97      12.33
H      -0.49      24.69      10.16
H      -1.08      23.20       9.82
H      -2.77      22.20       8.43
H      -3.99      22.56       7.39
H      -4.83      23.91      13.79
H      -2.37      25.81       9.46
H      -4.04      24.82       8.01
C      -4.69      23.89      12.71
C      -3.50      24.43      12.17
C      -6.63      22.80       9.62
C      -3.37      24.38      10.78
C      -2.44      24.72       9.61
C      -3.57      24.08       8.67
C      -2.47      25.03      13.05
C      -4.36      23.84       9.96
C      -5.56      23.34      10.48
C      -5.69      23.37      11.89
N      -1.10      24.18       9.52
N      -3.16      22.95       7.85
