22

O      15.24      17.32      11.52
O      14.76      16.07      13.36
O      14.87      11.17       9.71
O      15.33      12.57       7.99
H      12.20      14.70      12.05
H      13.57      14.00      12.93
H      12.22      12.77      10.58
H      13.58      12.12      11.51
H      12.50      14.18       8.69
H      14.09      14.69       8.11
H      12.45      16.11      10.15
H      14.05      16.58       9.53
H      15.82      14.73      10.07
C      14.77      16.28      12.11
C      14.16      15.20      11.22
C      13.19      14.25      11.94
C      13.21      13.01      11.00
C      14.19      13.45       9.90
C      13.50      14.51       9.01
C      13.47      15.75       9.94
C      14.85      12.30       9.14
N      15.18      14.24      10.70
