10

O       6.42       6.14       8.97
O       7.19       8.00       7.95
C       7.02       6.75       8.00
C       7.52       5.91       6.89
O       8.40       4.37       4.71
O       7.63       2.50       5.73
H       8.09       6.42       6.10
C       7.80       3.75       5.67
C       7.29       4.59       6.79
H       6.72       4.09       7.58
