88

H       3.59      24.09      12.49
H       3.22      23.42      10.89
H       2.01      24.38      11.74
H       2.24      26.01      13.08
H       2.65      27.71      13.32
H       3.82      26.46      13.76
H       4.64      27.43       6.91
H       4.85      25.68       7.05
H       6.17      26.76       7.48
H       6.08      28.73       8.31
H       5.84      29.73       9.74
H       4.60      29.71       8.48
H       4.92      33.13       8.52
H       6.33      33.01       9.59
H       6.45      33.93       8.08
H       6.49      36.19       7.08
H       4.91      36.98       6.96
H       5.01      35.21       7.01
H       5.20      36.23      13.86
H       3.76      35.31      13.39
H       3.73      37.08      13.33
H       3.88      39.07      11.90
H       5.48      39.47      11.27
H       5.33      38.56      12.78
H       7.59      28.55      17.67
H       7.19      29.23      16.09
H       6.01      28.22      16.93
H       6.27      28.08      19.63
H       6.64      29.11      21.02
H       7.84      28.88      19.76
H       3.83      34.10      17.80
H       4.00      33.33      16.22
H       5.28      34.39      16.82
H       5.24      34.60      19.62
H       5.04      33.59      21.07
H       3.71      33.77      19.92
C       4.05      24.25       8.82
C       5.84      31.32      21.38
C       5.18      38.66       8.87
C       4.65      27.90       9.68
C       4.16      27.93      11.01
C       6.22      30.20      17.78
C       5.70      31.33      17.10
C       5.07      34.96      11.02
C       4.83      36.17      11.71
C       5.21      32.46      17.81
C       5.29      32.47      19.22
C       5.79      31.34      19.88
C       6.24      30.20      19.19
C       4.95      37.39      11.02
C       5.16      37.37       9.62
C       5.33      36.16       8.92
C       5.37      34.95       9.63
C       3.63      26.76      11.63
C       3.61      25.55      10.90
C       4.07      25.55       9.57
C       4.58      26.70       8.95
C       4.42      31.47      11.77
C       4.93      30.17      13.75
C       4.27      29.18      11.79
C       5.02      33.68      11.76
C       5.52      32.52      13.67
C       5.60      31.31      15.63
C       3.08      24.29      11.53
C       3.06      26.74      13.02
C       5.08      26.63       7.52
C       5.32      29.08       9.02
C       5.78      33.69       8.92
C       5.44      36.14       7.42
C       4.36      36.20      13.15
C       4.91      38.69      11.78
C       6.78      28.99      17.08
C       6.77      29.01      19.94
C       4.55      33.63      17.13
C       4.80      33.67      20.00
N       4.96      31.39      13.06
N       4.66      29.06      13.07
N       4.00      30.35      11.17
N       4.38      32.66      11.17
N       5.63      33.64      12.96
N       5.18      30.16      15.06
N       5.91      32.45      14.95
O       6.13      38.86       8.03
O       4.98      23.42       9.07
O       6.80      31.93      21.96
O       4.24      39.50       9.10
O       4.91      30.69      21.98
O       3.10      24.04       8.00
