13

H      -1.77       9.11       1.78
C      -1.40       9.39       2.77
H      -1.46      10.48       2.89
H      -2.05       8.96       3.54
C      -0.01       8.92       2.95
C       1.90       8.42       3.86
C       2.96       8.22       4.87
H       3.95       8.26       4.41
H       2.88       9.01       5.64
H       2.86       7.25       5.37
N       0.84       8.60       1.96
N       2.04       8.28       2.54
N       0.63       8.80       4.15
