23

N       6.61      10.59      15.23
H       5.56      10.68      15.31
N       7.66       9.81      18.37
H       7.55       9.80      19.38
N       8.62      10.15      16.51
H       5.11      11.08      13.19
H       8.23      11.60      10.28
H       9.27      10.76      14.38
O       4.30      11.64      10.94
O       5.82      11.25       9.35
O      10.59      11.74      10.76
C       5.53      11.44      10.57
C       6.57      11.36      11.63
O      11.20      10.84      12.74
C       7.26      10.27      16.35
C       7.13      10.88      13.95
C       6.17      11.12      12.95
C       7.93      11.43      11.31
C       8.50      10.94      13.63
C       8.88      11.23      12.31
C      10.33      11.26      11.95
N       6.63      10.03      17.53
N       8.83       9.89      17.78
