42

O      -4.84      -2.29      13.76
C     -11.34      -4.15      10.68
C     -12.01      -3.51      11.80
H      -9.49      -7.93       5.67
C     -13.23      -4.03      12.28
H     -11.69      -9.02       5.05
C     -13.88      -3.44      13.35
H     -13.75      -8.28       6.23
C     -13.34      -2.30      13.98
H     -13.58      -6.52       8.02
C     -12.14      -1.77      13.49
H     -13.67      -4.92      11.82
C     -11.48      -2.35      12.41
H     -14.82      -3.85      13.73
C     -14.10      -1.63      15.08
H     -11.73      -0.88      13.97
C      -8.77      -3.70      10.89
H     -10.56      -1.91      12.03
C      -7.77      -3.17      10.06
H      -7.91      -3.17       8.98
C      -6.60      -2.65      10.60
H      -5.83      -2.23       9.96
C      -6.40      -2.66      11.99
H      -7.20      -3.27      13.90
C      -7.37      -3.23      12.82
H      -9.30      -4.19      12.93
C      -8.55      -3.75      12.28
H     -13.09      -4.95       9.68
C      -5.19      -2.00      12.55
C     -10.43      -7.64       6.13
N     -10.33      -6.71       7.09
C     -11.64      -8.23       5.80
N      -9.93      -5.00       9.14
C     -12.79      -7.82       6.47
N     -12.05      -4.88       9.74
C     -12.70      -6.85       7.46
O     -13.57      -0.56      15.55
C     -11.44      -6.32       7.76
O     -15.21      -2.11      15.44
C     -11.18      -5.38       8.84
O      -4.56      -1.14      11.86
C      -9.99      -4.24      10.28
