34

N      22.66      14.33      15.48
N      23.83      14.85      14.96
N      29.06       1.30      16.29
N      30.13       2.04      15.87
H      25.48      14.03      13.93
H      26.96       1.48      16.08
H      20.87      11.88      14.74
H      21.83      11.21      16.06
H      20.84      12.65      16.35
H      30.76       4.08      13.58
H      30.11       5.16      14.83
H      31.55       4.18      15.18
H      23.24       7.93      14.45
H      28.02       7.25      13.25
H      24.24       5.66      14.59
H      27.01       9.52      13.11
C      22.62      13.01      15.22
C      29.69       3.11      15.19
C      24.84       6.51      14.26
C      26.41       8.67      13.43
C      26.21       6.30      13.97
C      25.07       8.89      13.81
C      26.97       7.40      13.50
C      24.28       7.77      14.18
C      26.85       5.07      14.23
C      24.56      10.20      13.92
C      24.20      11.35      14.16
C      27.45       4.08      14.62
C      24.52      13.85      14.40
C      27.93       1.90      15.86
C      23.81      12.64      14.53
C      28.27       3.07      15.14
C      21.48      12.15      15.62
C      30.58       4.18      14.66
