22

H       1.79       5.72      17.44
H       1.15       8.11      17.14
H       2.00       6.25      21.69
H       0.59      10.33      18.15
H       0.80      10.86      22.40
C       2.28       4.41      19.76
H       1.50       8.48      22.69
C       1.94       5.86      19.59
C       1.70       6.39      18.29
C       1.34       7.70      18.13
O       0.16      12.84      21.16
C       1.20       8.56      19.26
O      -0.09      12.54      18.92
C       1.45       8.03      20.57
O       2.49       3.98      20.94
C       1.82       6.67      20.70
O       2.32       3.70      18.70
C       0.79       9.91      19.13
C       0.65      10.72      20.25
C       0.92      10.19      21.54
C       1.30       8.88      21.70
C       0.21      12.14      20.09
