96

H       4.00      15.44      13.73
H       3.92      13.45      15.17
H       2.01       9.33      17.30
H       3.03       7.60      24.34
H       4.16       7.17      22.69
H       4.19       7.39      20.27
H       3.15       7.84      18.38
H       3.27       3.46      27.06
H       3.23       3.29      24.61
H       1.82       3.82      19.97
H       1.46      -1.29      14.90
H       3.41       0.03      15.47
H       3.72       2.04      16.83
H       2.81       3.56      18.15
H       3.00      -1.90      10.23
H       3.17       0.33      11.27
H       1.57       4.33      13.90
H       2.34      11.16      11.86
H       4.06       9.88      12.85
H       4.11       7.69      13.93
H       2.87       5.91      14.55
H       0.09      -4.61      12.86
H       1.23      14.55       9.93
H       1.96       8.59      27.55
H      -0.09       3.64      12.99
H       0.44      10.55      17.08
H       0.23       3.48      21.10
C       3.22      15.71      11.22
C       2.07      -4.15      11.25
C       3.33       5.67      28.56
C       3.61      14.50      13.33
C       3.56      13.38      14.14
C       2.43      10.73      15.71
C       2.46       9.46      16.31
C       3.29       6.79      26.30
C       3.11       6.68      24.92
C       3.59       6.45      22.10
C       3.62       6.57      20.72
C       3.17      14.44      12.00
C       3.06      12.16      13.64
C       3.02      10.90      14.43
C       3.05       8.34      15.71
C       3.03       7.02      16.39
C       3.07       6.93      17.79
C       3.22       4.37      26.46
C       3.18       4.27      25.07
C       2.28       4.43      21.97
C       2.32       4.58      20.57
C       1.68      -2.67      13.29
C       1.77      -1.39      13.86
C       3.00       0.98      15.12
C       3.17       2.12      15.90
C       3.27       5.62      27.08
C       3.04       5.42      24.27
C       2.95       5.39      22.79
C       2.98       5.62      19.92
C       2.99       5.70      18.44
C       2.88       4.53      17.66
C       2.64      -1.75      11.25
C       2.73      -0.49      11.83
C       1.83       2.25      13.43
C       1.99       3.38      14.24
C       2.73      13.22      11.46
C       2.68      12.10      12.30
C       3.59       9.76      13.83
C       3.61       8.52      14.44
C       2.10      -2.83      11.96
C       2.26      -0.29      13.15
C       2.36       1.01      13.86
C       2.67       3.36      15.47
C       2.83       4.59      16.26
C       2.92       5.84      15.64
C       1.27      -3.78      14.22
C       2.42      12.98      10.01
C       3.70       8.09      26.91
C       1.12       2.42      12.11
C       1.77      11.83      16.49
C       1.60       3.16      22.44
O       4.29       6.27      29.14
O       4.21      15.91      10.43
O       3.04      -4.96      11.46
O       2.38       5.07      29.17
O       1.11      -4.36      10.44
O       2.28      16.54      11.43
O       0.56      -4.81      13.71
O       1.59      -3.76      15.39
O       1.73      13.93       9.34
O       2.82      11.98       9.44
O       2.94       8.73      27.79
O       4.83       8.52      26.63
O       0.18       3.42      12.08
O       1.35       1.79      11.10
O       0.77      11.44      17.34
O       2.08      13.01      16.45
O       0.56       2.74      21.65
O       1.94       2.45      23.36
