40

H       8.81       6.75       3.02
H       8.79       6.66       5.51
H       8.04       8.35       1.23
H      12.35       8.55       1.21
H      10.70      10.56      -3.06
H      10.76      10.57      -5.56
H       9.86       6.38      -5.60
H       9.74       6.37      -3.11
H      11.51      10.00       5.64
H       6.80       8.34      -0.59
H      12.69       8.36      -2.49
C      10.35       8.48      -7.23
C      10.92       9.28       5.07
C      10.93       9.29       3.68
C      10.18       8.41       2.90
C       9.39       7.47       3.59
C       9.38       7.41       4.98
C      10.15       8.32       5.73
C       9.00       8.38       0.70
C       8.98       8.40      -0.70
C      10.19       8.46      -1.43
C      11.40       8.51      -0.70
C      11.39       8.52       0.70
C      10.14       8.28       7.23
C      10.20       8.45       1.43
C      10.51       9.65      -3.62
C      10.55       9.65      -5.01
C      10.31       8.47      -5.73
C      10.04       7.29      -5.03
C       9.98       7.29      -3.64
C      10.22       8.47      -2.92
C       7.63       8.44      -1.33
C      12.72       8.48      -1.38
O      10.30       7.35      -7.82
O      10.44       9.62      -7.80
O       9.53       7.31       7.79
O      10.75       9.22       7.83
O       7.38       8.58      -2.52
O      13.79       8.57      -0.79
F      11.69      10.25       3.06
