32

N       1.58       7.66       7.96
H      -3.20      12.60       9.52
H      -3.21      14.37      11.73
H      -0.65      13.43      12.48
H       0.54      15.46      10.89
Cl      -5.29      18.48       8.31
H       1.90       8.29      11.11
H      -1.49      20.64      10.58
H       0.20       9.08       7.20
H      -2.02      14.64       7.92
H       0.56      13.69       8.67
C       0.74       8.69       8.07
C       0.71       9.15       9.40
C      -0.29      13.86       9.34
C      -1.71      14.35       8.93
C      -2.43      17.87       9.87
C       0.05      10.31       9.87
C      -0.29      14.82      10.58
C      -1.72      15.35      10.16
C      -0.95      13.70      11.46
C      -0.94      12.71      10.22
C      -2.37      14.21      11.05
C      -2.37      13.25       9.82
C      -2.11      16.71      10.05
C      -0.47      11.38      10.13
C      -2.42      20.42      10.06
C      -2.92      19.17       9.66
C      -4.13      19.52       9.01
C       1.59       8.29      10.07
N      -3.26      21.41       9.70
N      -4.31      20.85       9.04
N       2.11       7.40       9.20
