22

H       1.24       7.95       9.77
H       2.67       6.97      10.12
N       1.45       5.51      11.91
H       1.49       6.43       8.91
N      -1.33       5.65      11.83
H      -1.55       5.12      14.76
H      -0.73       6.87       8.83
H      -2.30       6.74       9.66
H      -1.23       8.10      10.00
H      -2.52       4.17      13.64
H      -1.03       3.47      14.32
H       0.92       3.03      13.90
H       2.44       3.91      13.71
H       1.22       4.46      14.88
C       0.82       6.21      10.93
C      -0.70       4.97      12.82
C      -0.59       6.26      10.88
C       0.70       4.86      12.83
C       1.61       6.93       9.88
C      -1.49       4.39      13.94
C      -1.26       7.02       9.78
C       1.37       4.03      13.88
