51

C       7.93      17.61      22.23
C       7.25      17.00      21.22
C       6.09      16.18      21.43
C       5.56      15.37      20.48
H      10.26      18.25      23.98
H       8.92      19.42      20.02
H      -1.16      10.58      27.75
H      -2.28      14.58      26.51
C      -0.48      12.38      25.48
C       0.10      13.40      24.79
C       0.92      13.20      23.63
C       1.70      14.16      23.07
H       6.29       6.61      16.63
H       2.78       8.45      14.89
H       7.62      17.10      20.19
H       5.62      16.19      22.42
H       7.60      17.43      23.25
H       6.02      15.28      19.50
C       4.73       9.12      17.09
C       3.71       9.85      17.61
C       3.91      10.98      18.47
C       2.93      11.56      19.22
N      10.60      19.89      21.22
N      11.03      19.53      22.47
H      -0.03      14.43      25.14
H       0.94      12.20      23.18
H      -0.27      11.36      25.16
H       1.76      15.16      23.51
N      -2.79      13.34      28.15
N      -2.44      12.07      28.54
N       3.84       6.66      14.52
N       4.96       6.08      15.07
N       3.59      14.78      21.76
N       2.30      12.87      21.12
N       4.24      13.48      19.86
H       4.92      11.38      18.56
H       1.92      11.15      19.23
C      10.12      18.68      22.99
C       9.09      18.45      22.06
C       9.45      19.25      20.96
H       2.67       9.56      17.39
H       5.75       9.37      17.40
C      -1.58      11.58      27.64
C      -1.33      12.53      26.63
C      -2.13      13.63      27.01
C       5.42       6.89      16.05
C       4.58       8.01      16.17
C       3.60       7.81      15.18
C       4.41      14.51      20.71
C       2.57      13.92      21.92
C       3.17      12.69      20.11
