26

C      11.53      23.12      18.57
C      12.55      24.28      18.53
C      13.42      24.26      19.81
C      14.16      22.91      19.87
C      13.15      21.74      19.89
C      11.71      22.30      19.87
C      11.50      23.22      21.08
C      12.50      24.40      21.04
O      10.91      20.21      19.03
O       9.66      21.30      20.58
H      10.50      23.51      18.53
H      11.66      22.45      17.71
H      13.21      24.20      17.66
H      12.03      25.25      18.46
O      15.29      25.31      18.79
O      14.33      26.34      20.58
H      14.84      22.84      19.01
H      14.79      22.89      20.78
H      13.29      21.08      19.03
H      13.28      21.13      20.79
H      13.12      24.43      21.95
H      11.98      25.36      21.00
H      10.47      23.58      21.09
H      11.63      22.63      22.00
C      10.68      21.18      19.84
C      14.43      25.40      19.73
