23

O       7.29       7.45       8.70
C       5.86       9.01       9.69
O       4.72      14.91      11.71
H       3.37       9.05      12.75
C       3.79      12.43      12.77
O       5.32       6.64       9.45
H       6.77       9.45      10.12
C       4.51      10.16      11.31
H       5.58       9.58       8.79
C       2.47      11.04      14.41
H       3.53      13.34      13.32
C       4.99      11.41      10.92
H       2.44      10.00      14.76
C       4.63      12.54      11.66
H       1.44      11.35      14.20
C       3.33      11.17      13.18
H       2.85      11.66      15.23
C       6.15       7.58       9.26
H       5.67      11.53      10.07
O       6.26      13.77      10.50
C       3.70      10.04      12.45
O       4.80       9.00      10.64
C       5.24      13.85      11.26
