20

C       6.94      11.83       0.01
C       7.99      12.52      -0.62
C       7.93      13.91      -0.70
C       5.91      13.96       0.44
C       5.89      12.57       0.55
N       6.93       7.57       0.09
N       6.90      14.61      -0.18
H       5.06      12.08       1.06
H       9.00       7.65       0.25
H       9.10      10.14       0.25
H       4.78      10.16      -0.07
H       4.86       7.68      -0.06
H       8.83      11.99      -1.06
H       8.70      14.50      -1.20
H       5.13      14.59       0.87
C       8.09       8.25       0.17
C       8.14       9.63       0.16
C       6.94      10.36       0.07
C       5.74       9.65       0.01
C       5.77       8.26       0.00
