16

H      10.88       8.61       9.98
O       8.67       5.04      12.44
O       8.68      11.80       9.45
O       6.90       6.19      13.31
O      10.51      10.59       8.81
C       7.73       9.49      10.91
C       7.91       6.08      12.56
C       8.29       7.29      11.76
C       9.46      10.73       9.45
C       7.38       8.34      11.62
C       9.00       9.58      10.32
C       9.56       7.39      11.18
C       9.91       8.52      10.46
H       7.03      10.31      10.79
H       6.39       8.23      12.07
H      10.27       6.57      11.29
