22

C       7.42       1.06      11.42
C       2.30      -0.98      12.42
N       8.50       1.47      11.22
N       1.24      -1.43      12.62
O       6.05      -3.34      12.26
O       3.63       3.42      12.18
O       3.89      -3.37      11.57
O       5.80       3.50      11.49
H       4.04       0.91      14.07
H       5.66      -0.81       9.78
H       6.39      -0.69      13.69
H       3.32       0.80      10.16
C       4.95      -2.79      11.94
C       4.74       2.90      11.85
C       5.70      -0.35      12.92
C       4.01       0.45      10.94
C       4.41       0.52      13.12
C       5.29      -0.41      10.73
C       4.81       1.41      11.90
C       4.91      -1.30      11.97
C       6.12       0.54      11.68
C       3.59      -0.44      12.17
