16

C      10.88      13.05      19.42
C      12.72      14.21      21.26
C      12.02      13.76      18.98
C       9.87      12.43      18.50
C      11.59      13.50      21.70
C      12.91      14.32      19.88
C      10.69      12.94      20.80
O       8.91      11.80      19.07
H      13.78      14.86      19.50
H       9.82      12.40      21.18
C      13.73      14.83      22.18
O      13.54      14.70      23.43
O      10.06      12.56      17.25
O      14.69      15.45      21.61
F      12.28      13.92      17.66
F      11.32      13.34      23.02
