24

C      12.47       8.68      13.79
N      13.10       6.59      12.84
N       7.23       7.60      14.28
H      13.75       4.94      11.76
H       8.96       4.48      11.48
H      11.41       4.15      11.24
H       6.50       8.90      15.69
H      10.77       8.49      15.54
H       8.77       9.48      16.60
H       7.06       5.73      12.46
O      11.76       9.65      13.57
C      11.58       5.02      11.88
C       7.40       8.48      15.26
C       8.68       8.81      15.75
C       9.79       8.26      15.14
C       9.64       7.40      14.03
C       8.31       7.02      13.68
C      10.74       6.81      13.30
H      13.47       8.77      14.26
C      10.48       5.70      12.45
C       9.14       5.32      12.16
C      12.08       7.29      13.36
C      12.86       5.45      12.13
C       8.08       5.99      12.71
