20

S       7.83       2.82      19.47
S       7.11       6.56      21.22
H       9.95       6.96      20.03
H      10.84       5.91      18.96
H       5.19       2.29      20.99
H       4.15       3.43      21.81
N       9.96       6.16      19.42
N       4.93       3.25      21.19
C      10.27       3.33      18.30
C       4.68       6.04      22.42
O      10.21       2.09      17.96
O      11.23       4.14      18.00
O       4.78       7.25      22.84
O       3.70       5.24      22.67
C       9.07       5.15      19.61
C       5.87       4.23      21.08
C       9.18       3.85      19.08
C       5.76       5.53      21.61
C       7.10       4.10      20.36
C       7.86       5.27      20.35
