32

H      12.06      13.59       5.57
H       6.42      13.22       9.37
H      12.16      16.02       5.99
H       7.10      20.16       8.06
H      10.30      11.41       3.47
H      11.18      18.07       7.00
H       7.39      11.17       8.31
H       6.47      15.68       9.70
C      10.38      17.45       7.41
C       8.14      11.80       7.84
C       8.39      17.41       8.63
C      10.03      11.90       6.49
C       8.27      16.00       8.51
C      10.21      13.29       6.71
C       9.28      15.34       7.74
C       9.23      13.94       7.52
C      10.35      16.08       7.18
C       8.18      13.18       8.09
C       7.23      15.19       9.09
C      11.28      14.07       6.16
C       7.20      13.83       8.90
C      11.35      15.42       6.40
S       7.16      18.47       9.46
S      11.15      11.02       5.39
N       9.43      18.09       8.11
N       9.04      11.19       7.05
O       6.11      17.65      10.01
O       7.91      19.35      10.32
O       6.56      19.25       8.25
O      12.50      11.27       5.82
O      10.64       9.70       5.14
O      10.97      11.87       4.02
