52

C      27.72       4.98       6.26
C      28.29       3.79       6.75
C      27.85       2.58       6.18
C      26.89       2.56       5.17
C      26.32       3.76       4.70
C      26.75       4.97       5.27
H      20.12      -0.04       5.53
H      21.74      -1.67       1.86
H      23.51       9.04       0.02
H      27.09       7.32      -1.71
H      28.85       5.56       9.14
H      30.64       2.03       7.38
H      22.78       0.57       1.55
H      22.31       1.02       5.82
H      24.00       2.81       5.81
H      24.49       2.34       1.56
C      24.11       6.22       1.21
C      25.31       6.71       0.65
C      26.52       6.17       1.14
C      26.53       5.19       2.12
C      25.33       4.72       2.68
C      24.12       5.25       2.20
H      28.05       5.94       6.67
H      28.26       1.64       6.54
H      26.57       1.61       4.75
H      26.32       5.91       4.91
H      23.16       6.60       0.84
H      27.47       6.54       0.74
H      27.48       4.80       2.48
H      23.18       4.89       2.62
N      19.61      -1.68       4.28
N      20.13      -2.18       3.11
N      25.86       8.97      -2.19
N      24.72       9.51      -1.65
N      31.07       3.22       9.08
N      30.51       4.34       9.62
N      25.34       3.73       3.69
C      20.36      -0.61       4.64
C      21.38      -0.40       3.69
C      21.18      -1.42       2.75
C      24.38       8.77      -0.57
C      25.30       7.73      -0.39
C      26.22       7.91      -1.44
C      29.45       4.70       8.86
C      29.30       3.80       7.80
C      30.35       2.88       7.99
C      23.04       1.05       2.50
C      22.40       0.65       3.69
C      22.77       1.31       4.87
C      23.73       2.32       4.88
C      24.36       2.70       3.68
C      24.01       2.05       2.49
