32

H      22.87      12.48      12.47
H      24.36      11.13      11.09
H      25.64       6.58       9.27
H      22.03       4.49      11.98
H      21.01      12.71      13.98
H      25.42       2.92       8.93
H      20.75       8.97      13.79
C      24.66       4.80       9.81
C      23.62       4.20      10.60
C      22.82       4.96      11.41
C      23.57      10.63      11.66
C      23.43       9.21      11.60
C      22.38       8.58      12.39
C      25.26       9.04       9.89
C      21.12       6.57      13.15
C      21.54       9.41      13.18
C      21.70      10.78      13.21
C      22.73      11.39      12.44
C      24.23       8.40      10.77
C      20.80      11.61      14.03
C      25.57       4.02       8.92
C      24.04       7.00      10.70
C      23.00       6.38      11.49
C      22.20       7.19      12.32
C      24.84       6.16       9.88
Br      23.30       2.32      10.52
O      25.09       8.88       8.63
O      26.20       9.67      10.46
O      21.31       6.54      14.41
O      20.09       6.15      12.52
O      19.88      11.18      14.73
O      26.43       4.53       8.22
