28

O       2.14       0.21      26.05
O       4.38       0.47      26.10
O       4.18       3.26      15.17
O       1.93       3.53      15.29
H       1.00       3.21      17.50
H       1.03       2.65      19.92
H       5.14       2.13      17.16
H       5.26       2.14      21.63
H       1.04       1.26      21.50
H       5.19       1.50      19.57
C       3.07       2.70      17.19
C       1.91       2.83      17.97
C       1.94       2.52      19.32
C       3.12       2.06      19.93
C       4.27       1.90      19.13
C       4.25       2.23      17.78
C       4.33       1.83      22.11
C       4.37       1.49      23.47
C       1.99       1.07      23.41
C       1.98       1.37      22.04
C       3.15       1.75      21.37
C       3.07       3.17      15.78
C       3.20       1.09      24.15
C       3.23       0.57      25.54
C       5.66       1.58      24.09
C       0.72       0.75      23.99
N       6.76       1.68      24.46
N      -0.39       0.55      24.29
