58

H       6.45      35.92       6.27
H       8.31      34.13       2.79
H      18.99      43.21      11.84
H      20.74      39.62      10.14
H      11.89      48.56      -0.80
H      15.41      46.77      -2.59
H      12.28      37.00       5.07
H      14.02      38.77       5.10
H      11.05      41.72       4.10
H       9.30      39.95       4.08
C      16.60      41.39       7.64
C      16.94      41.67       6.30
C      15.97      41.66       5.31
C      14.63      41.37       5.62
C      14.29      41.09       6.96
C      15.26      41.10       7.95
C      17.59      41.40       8.66
C      18.44      41.41       9.53
H      17.98      41.88       6.05
H      16.24      41.87       4.27
H      13.25      40.88       7.20
H      14.98      40.90       8.98
C      13.65      44.36       1.61
C      13.39      43.01       1.29
C      13.39      42.03       2.27
C      13.65      42.37       3.61
C      13.91      43.71       3.95
H      13.19      40.99       2.01
H      13.20      42.75       0.25
C      13.91      44.69       2.96
C      13.65      45.37       0.61
H      14.10      45.73       3.23
C      13.65      46.23      -0.25
H      14.10      43.97       4.99
C       6.74      35.31       5.41
C       7.82      35.47       4.53
C       7.69      34.39       3.63
N      13.64      41.37       4.61
N       6.61      33.66       3.96
N       6.02      34.23       5.06
C      19.58      42.33      11.60
C      19.43      41.42      10.54
C      20.48      40.50      10.73
N      20.65      41.99      12.35
N      21.20      40.85      11.81
N      14.21      48.46      -3.05
N      13.09      49.02      -2.48
C      12.75      48.30      -1.40
C      13.65      47.22      -1.25
C      14.55      47.38      -2.32
C      10.67      38.35       4.58
C      12.01      38.04       4.87
C      12.99      39.03       4.88
C      12.65      40.36       4.60
C      11.31      40.68       4.31
C      10.34      39.69       4.30
C       9.67      37.34       4.56
C       8.81      36.47       4.55
