10

C       2.43      13.46      15.57
O       1.23       8.79      10.08
O       3.50       8.96       9.85
C       2.38       9.23      10.40
O       1.28      13.91      15.90
O       3.55      13.73      16.12
C       2.45      12.54      14.46
C       2.45      11.77      13.51
C       2.44      10.92      12.46
C       2.42      10.15      11.51
