16

C       2.21      14.20      20.11
H       6.08      10.38      17.68
H       2.14      14.32      17.26
O       6.82       9.59      15.23
O       1.35      15.06      19.72
O       2.49      13.91      21.33
C       5.96      10.45      14.83
C       5.38      11.08      17.23
C       2.84      13.62      17.71
C       5.24      11.20      15.86
C       2.97      13.48      19.08
C       3.73      12.75      17.03
C       4.51      11.96      17.91
O       5.68      10.73      13.61
S       4.07      12.39      15.38
S       4.15      12.30      19.56
