14

C       2.46       6.41      10.11
C       2.48       7.88       8.39
C       1.14       7.49       8.07
H       0.32       5.24      11.71
C       1.14       6.08       9.83
C       1.05       5.04      10.92
C       2.55       5.44      11.25
H       3.32       4.66      11.16
H       0.94       4.02      10.54
I       3.39       9.44       7.34
I       0.22       8.14       6.31
I       2.83       6.31      13.21
N       3.17       7.31       9.42
N       0.44       6.62       8.84
