44

O       0.11      21.11      11.31
O       1.72      19.57      11.21
O       4.17      20.14      12.14
O       2.69      35.24      20.92
O       1.09      36.76      21.17
O      -1.37      36.29      20.19
F       3.12      30.41      16.43
H      -0.96      28.42      16.57
H      -0.09      26.40      15.47
H       3.81      28.26      15.26
H       3.62      26.01      14.56
H       0.77      24.93      14.09
H       0.64      23.02      12.68
H       5.44      22.00      13.37
H       4.50      24.09      14.28
H      -0.79      30.62      17.27
H       2.03      31.69      17.88
H       2.15      33.47      19.39
H      -2.65      34.55      18.80
H      -1.72      32.52      17.73
C       2.25      29.37      16.19
C       0.90      29.50      16.58
C       0.09      28.38      16.27
C       0.58      27.25      15.64
C       1.93      27.16      15.26
C       2.76      28.26      15.55
C       2.52      26.00      14.62
C       1.87      24.93      14.11
C       2.48      23.73      13.56
C       1.70      22.81      12.85
C       2.21      21.61      12.34
C       3.59      21.29      12.55
C       4.39      22.24      13.23
C       3.85      23.41      13.72
C       1.29      20.74      11.58
C       0.30      30.64      17.25
C       0.94      31.68      17.84
C       0.31      32.83      18.47
C       1.09      33.69      19.24
C       0.58      34.85      19.86
C      -0.80      35.19      19.68
C      -1.60      34.29      18.92
C      -1.07      33.16      18.33
C       1.50      35.64      20.69
