36

H      25.38      14.58      13.30
H      23.11      12.31      10.09
H      25.42      14.57       6.86
H      27.69      16.84      10.07
H      28.81      17.96       8.48
H      26.54      15.69       5.27
H      28.81      18.00       2.04
H      31.07      20.27       5.25
O      29.98      19.20       1.97
O      24.18      13.40      13.37
O      23.05      12.27      11.77
O      31.11      20.34       3.57
C      30.23      19.45       3.22
C      23.94      13.15      12.12
O      25.97      15.14      12.74
O      23.52      12.69       9.27
O      24.86      14.01       7.42
O      27.29      16.44      10.87
O      29.38      18.53       7.92
O      26.94      16.09       4.47
O      28.24      17.41       2.60
O      30.69      19.86       6.06
C      24.68      13.86      11.09
C      25.67      14.83      11.46
C      26.37      15.52      10.47
C      26.10      15.25       9.10
C      25.14      14.29       8.72
C      24.42      13.60       9.71
C      26.81      15.96       8.10
C      27.42      16.57       7.23
C      28.13      17.28       6.24
C      29.09      18.25       6.61
C      29.79      18.96       5.63
C      29.52      18.70       4.25
C      28.55      17.72       3.88
C      27.86      17.02       4.87
