14

H       1.10       6.89      10.62
H      -1.43       6.91      10.59
H      -1.49       4.31      15.10
H      -1.51       2.95      13.94
H       1.03       2.90      13.95
H       1.05       4.26      15.10
C      -0.90       4.87      13.05
C       0.52       6.30      11.33
C       0.49       4.84      13.05
C      -0.87       6.31      11.32
C      -1.02       3.90      14.20
C       0.57       3.87      14.20
N      -1.62       5.59      12.19
N       1.24       5.55      12.21
