20

S      17.82      20.94      27.40
H      22.07      17.61      29.18
H      19.96      21.36      29.13
H      20.36      16.65      27.63
H      16.43      19.41      27.58
C      18.21      17.74      26.63
C      22.12      20.14      30.19
O      18.64      16.75      25.97
O      16.99      18.15      26.59
O      21.92      21.35      30.52
O      23.10      19.40      30.56
O      16.50      20.31      28.02
O      18.03      22.19      28.07
O      17.77      20.88      25.96
C      19.19      18.44      27.52
C      21.12      19.54      29.26
C      19.09      19.78      27.95
C      21.23      18.21      28.83
C      20.04      20.32      28.81
C      20.28      17.68      27.97
