23

O      17.07       7.80       5.77
O      19.30      13.44       1.70
H      17.06      11.17       0.33
H      16.09       9.03      -0.42
H      15.98       7.08       1.13
H      16.90       7.26       3.41
H      19.30      10.66       5.83
C      17.03      10.32       1.01
C      16.48       9.13       0.59
C      16.43       8.01       1.47
C      16.95       8.11       2.74
C      17.54       9.32       3.20
C      17.57      10.46       2.32
C      18.19      11.67       2.76
C      18.82      11.73       4.01
C      18.81      10.60       4.86
C      18.17       9.44       4.47
C      18.17      12.89       1.91
C      18.19       8.29       5.42
C      19.47      12.91       4.49
N      20.01      13.83       4.96
O      17.03      13.27       1.47
O      19.35       7.90       5.80
