30

C       8.34      13.00      16.63
C       9.58      13.67      16.62
H      10.49      13.08      16.62
H      10.58      15.58      16.60
H       6.20      13.21      16.61
H      10.48      22.43      16.60
H       6.18      22.59      16.59
H       6.09      20.08      16.59
C       9.62      15.06      16.61
C       8.43      15.81      16.60
O       9.43      10.91      16.65
O       7.17      10.94      16.63
C       7.18      15.12      16.60
C       7.15      13.73      16.62
O       7.26      24.76      16.60
O       9.53      24.70      16.59
C       8.25      18.44      16.59
C       8.23      19.85      16.58
C       9.48      20.52      16.59
C       9.52      21.92      16.59
C       8.33      22.65      16.59
C       7.09      21.99      16.59
C       7.04      20.61      16.59
O       6.00      15.81      16.60
O      10.65      19.83      16.59
H       6.22      16.77      16.59
H      10.44      18.88      16.59
C       8.41      17.22      16.59
C       8.31      11.50      16.64
C       8.38      24.15      16.59
