29

H       6.18       2.16      12.05
C       3.17       1.92      16.59
C       1.48       1.46      15.23
H       3.33       5.41      12.14
H       2.17       4.31      14.02
C       5.57       4.52      10.85
H       4.09       2.22      17.09
C       5.88       5.89      10.73
H       2.15       1.04      18.27
C       6.12       3.93       9.72
S       5.38       0.53      14.16
H       0.81       1.32      14.39
N       2.18       1.32      17.27
H       5.68       6.70      11.42
N       1.14       1.03      16.46
H       7.12       4.90       8.08
N       6.58       6.12       9.61
H       6.11       2.90       9.36
C       3.50       2.63      14.12
N       6.72       4.92       9.01
C       4.64       2.04      13.53
O       4.32      -0.49      14.29
C       5.29       2.64      12.46
O       5.88       0.96      15.50
C       4.84       3.87      11.95
O       6.45       0.17      13.24
C       3.71       4.46      12.52
C       3.05       3.84      13.58
C       2.77       2.03      15.26
