15

H       9.17       8.14       7.15
H       8.37       7.96       8.72
O       9.36       5.60       6.77
C       9.87       5.59       7.94
H       9.24      10.24       8.44
O      11.40       9.34       6.82
O      10.11       4.56       8.65
C      10.28       6.92       8.53
H      10.09       9.46       9.78
C       9.35       8.10       8.23
O      12.17      10.31       8.72
C       9.94       9.43       8.69
C      11.28       9.72       8.02
H      10.42       6.79       9.62
H      11.27       7.13       8.10
