26

H       6.39       6.70       8.32
H       9.36       3.85       9.97
H      10.10       4.59       7.80
H       5.65       4.46       7.87
H      11.09       6.63       6.78
H       4.66       2.56       9.13
O       9.92       8.87       6.39
O       5.82       1.10      10.87
O       7.49      10.09       6.78
O       8.25       0.83      12.13
O       5.89       8.91       7.83
O       9.86       2.32      11.63
C       9.31       7.82       6.95
C       6.44       2.11      10.25
C       7.95       7.82       7.40
C       7.79       2.50      10.48
C       7.42       6.66       7.97
C       8.33       3.58       9.75
C       8.17       5.49       8.15
C       7.58       4.31       8.83
C       9.50       5.50       7.70
C       6.25       3.92       8.61
C      10.05       6.63       7.12
C       5.70       2.85       9.30
C       7.06       9.01       7.32
C       8.69       1.83      11.47
