18

C      23.49      18.54      19.16
H      25.10      20.91      21.75
O      20.95      17.57      19.53
C      23.26      19.90      21.18
O      27.35      20.74      20.86
C      24.80      18.93      19.00
O      20.52      19.04      21.20
C      22.70      18.99      20.24
H      23.04      20.95      22.94
N      22.56      20.43      22.22
H      23.02      17.85      18.45
H      21.60      20.12      22.35
C      26.83      20.14      19.86
O      27.44      19.78      18.80
C      25.38      19.78      19.96
C      21.30      18.51      20.33
H      25.40      18.58      18.16
C      24.62      20.26      21.03
