36

H       6.13      11.33      16.38
H       5.62       7.04      22.53
H       5.37      11.34      22.49
H       6.38       7.03      16.42
H       7.44       7.56      18.42
H       4.31      10.81      20.49
H       7.12       7.57      20.86
H       4.63      10.80      18.05
H       6.25      11.30      13.89
H       5.50       7.07      25.02
H       5.24      11.35      24.98
H       6.52       7.02      13.93
C       5.43       9.22      26.65
C       6.32       9.15      12.26
C       6.38       9.16      13.76
C       5.37       9.21      25.15
C       6.74       8.26      18.86
C       5.02      10.11      20.04
C       6.55       8.26      20.24
C       5.20      10.10      18.66
C       5.69       9.18      20.86
C       6.06       9.18      18.04
C       6.28      10.37      14.46
C       5.47       8.00      24.45
C       5.31      10.41      24.43
C       6.45       7.96      14.48
C       6.20      10.38      15.85
C       5.55       7.99      23.06
C       5.38      10.40      23.04
C       6.37       7.97      15.87
C       6.23       9.18      16.58
C       5.52       9.19      22.33
O       5.48       8.09      27.24
O       6.27      10.28      11.67
O       6.29       8.01      11.69
O       5.48      10.36      27.22
