35

O       8.19       0.76       9.45
C       4.39       3.50      10.43
O       6.42       0.73       8.03
C       5.03       2.56       9.62
C       1.33       8.75       8.95
O       1.94       9.12       7.89
C       2.06       7.79       9.84
O       0.18       9.13       9.33
F       5.83       5.32      14.29
C       1.44       7.27      10.98
C       2.12       6.39      11.82
F       6.19       6.52      12.49
C       3.44       6.01      11.52
F       4.53       7.01      13.82
H       8.00       2.37      11.27
C       4.06       6.54      10.38
F       2.79       4.96      14.36
H       6.87       4.01      12.72
F       2.38       3.59      12.70
C       3.38       7.42       9.55
C       4.27       5.06      12.41
H       3.38       3.82      10.17
F       4.10       3.24      14.01
H       4.54       2.14       8.75
C       5.21       5.97      13.26
C       3.38       4.22      13.38
C       7.03       1.14       9.06
H       0.41       7.56      11.20
C       6.34       2.15       9.92
H       1.61       6.01      12.70
C       6.98       2.69      11.04
H       5.08       6.25      10.13
C       6.34       3.62      11.85
H       3.85       7.82       8.66
C       5.04       4.05      11.55
