13

C       2.26       4.49       5.58
C       3.63       4.47       5.85
C       3.46       6.52       6.90
H       1.76       3.67       5.07
H       4.28       3.66       5.51
C       2.11       6.57       6.58
N       4.22       5.48       6.51
N       1.52       5.54       5.93
C       4.07       7.58       7.79
H       1.47       7.41       6.85
H       4.15       9.46       7.97
O       4.71       7.33       8.78
O       3.72       8.82       7.37
