36

N       0.76       3.23       4.29
N      -2.73       4.72       7.57
N      -2.90       6.32       9.33
N      -0.84       6.02       8.18
N      -7.64       4.63       8.53
N       0.47       9.08      11.90
H      -0.97       2.16       3.86
H      -2.32       3.24       5.65
H       1.20       5.46       6.78
H       2.40       4.36       4.87
H      -2.64       7.93      11.30
H      -1.33       9.31      12.91
C      -1.27       3.50       5.52
H       2.18       8.76      10.77
C       0.68       4.75       6.14
C       1.36       4.14       5.08
C      -1.45       5.09       7.43
C      -3.43       5.41       8.49
C      -1.59       6.56       9.15
C      -0.90       7.47      10.09
C      -0.53       2.91       4.52
H       1.02       7.28       9.11
C      -1.57       8.07      11.16
C      -0.85       8.85      12.05
C      -0.66       4.44       6.35
C       1.12       8.54      10.85
C       0.47       7.73       9.93
C      -4.88       5.13       8.55
C      -5.44       4.16       7.70
C      -5.75       5.84       9.40
C      -6.81       3.95       7.72
C      -7.11       5.56       9.35
H      -7.29       3.23       7.05
H      -5.36       6.60      10.07
H      -7.83       6.11       9.98
H      -4.80       3.61       7.02
