15

C       8.36      18.76       5.86
H      10.60      19.16       7.37
C      11.48      20.97       6.55
O      11.33      21.97       5.76
C       8.25      17.76       6.77
H       7.60      18.78       5.08
O       6.29      16.81       5.77
O      12.48      20.77       7.33
H       8.76      16.78       8.27
O       9.09      17.59       7.81
O       7.27      15.82       7.59
C      10.46      19.92       6.60
C       9.36      19.79       5.81
C       7.17      16.72       6.68
F       9.13      20.67       4.80
