24

C       5.30       0.48      11.50
H       4.75      -1.34      10.51
C       5.13      -0.90      11.43
H       5.04       1.10      10.64
H       6.17      -1.71      14.56
C       5.81       1.10      12.66
C       5.46      -1.73      12.52
H       6.46       0.72      14.69
C       5.89      -1.10      13.71
C       6.06       0.28      13.77
C       5.56      -4.13      13.43
H       5.42      -4.00      14.50
C       6.42       3.40      13.73
H       6.32       3.23      14.80
C       5.70      -3.95      11.24
H       5.75      -3.64      10.20
C       6.46       3.31      11.53
H       6.43       3.04      10.48
C       5.50      -3.18      12.40
N       6.83       4.60      13.27
N       5.89      -5.25      11.57
N       6.85       4.54      11.90
C       6.17       2.52      12.66
N       5.80      -5.36      12.92
