24

H       5.81       3.38       0.90
O       3.53       5.17       6.01
O       5.74       5.70       6.04
O       3.70       5.57      -6.00
O       5.94       5.15      -6.03
H       3.58       3.50      -0.86
H       7.16       5.30      -0.72
H       6.04       7.37       0.87
H       3.81       7.49      -0.88
H       2.47       5.58       0.73
C       4.75       5.45       1.38
C       4.26       6.58      -0.47
C       4.87       5.43      -1.37
C       5.50       6.51       0.47
C       6.12       5.36      -0.39
C       4.70       5.44       2.79
C       4.89       5.41      -2.78
C       4.64       5.43       5.45
C       4.83       5.37      -5.45
C       4.13       4.36      -0.46
C       5.37       4.29       0.48
C       4.67       5.43       4.01
C       4.85       5.38      -4.00
C       3.51       5.51       0.39
