26

H      12.10      10.90      10.37
H      12.88      20.50       7.13
H      11.10      14.25       6.90
H      10.21      11.90       6.84
N      11.41      18.28       6.77
N      11.13      11.32       8.60
N      12.77      15.16       8.95
N      12.36      16.08       8.17
N      14.23      19.80       8.53
N      15.74      19.03      10.14
H      16.35      19.82       9.93
H      11.25      18.96       6.04
H      11.07      17.34       6.60
H      16.19      18.23      10.56
H      14.45      16.67       9.80
H      13.12      13.21      10.57
C      10.85      12.24       7.65
C      11.35      13.53       7.69
C      12.18      13.90       8.76
C      12.48      12.94       9.74
C      11.93      11.67       9.63
C      14.08      17.51       9.22
C      14.70      18.77       9.30
C      13.00      17.31       8.35
C      13.19      19.62       7.70
C      12.51      18.40       7.57
