20

H       1.56       2.16      14.13
H       0.83       1.36      12.78
H      -4.29       5.15      15.70
H      -3.56       5.96      17.06
C      -1.71       1.54      11.86
C      -1.03       5.77      17.98
C      -0.45       2.49      13.85
C      -2.28       4.82      15.99
C      -1.61       2.35      13.05
C      -1.13       4.96      16.79
C      -2.01       3.91      14.91
C      -0.72       3.39      14.93
S      -2.95       3.33      13.60
S       0.22       3.99      16.25
N       0.72       1.83      13.67
N      -3.45       5.48      16.16
O      -0.60       1.02      11.46
O      -2.84       1.39      11.28
O       0.10       5.93      18.56
O      -2.14       6.30      18.38
