29

C       9.26       5.01       6.47
C       9.34       5.04       5.08
C      10.64       5.47       4.81
C       8.26       4.70       4.05
N       5.22       3.70       5.96
N       4.80       4.90       5.44
H       5.68       6.35       4.17
H       7.02       2.59       5.83
N       8.34       1.50       2.13
N       9.61       1.50       2.66
H      10.69       2.81       3.93
H       6.69       2.83       2.26
N       8.18       7.89       2.13
N       8.20       6.99       1.10
H       8.26       4.88       0.98
H       8.20       7.72       4.25
N      11.30       5.68       5.97
N      10.44       5.40       7.01
H       8.42       4.76       7.12
H      11.13       5.65       3.86
C       5.80       5.41       4.69
C       6.91       4.55       4.73
C       6.49       3.49       5.54
C       9.76       2.62       3.41
C       8.58       3.38       3.36
C       7.72       2.63       2.55
C       8.23       5.75       1.63
C       8.22       5.82       3.02
C       8.19       7.20       3.29
