22

H       2.22       6.88       4.76
H       2.11       6.88       2.27
H       6.39       6.88       4.70
H       1.93       6.86      -4.70
H       6.11       6.86      -4.76
H       6.22       6.86      -2.27
C       3.13       6.88       4.16
C       3.07       6.88       2.77
C       4.26       6.88       2.02
C       5.47       6.87       2.74
C       5.46       6.88       4.13
C       4.21       6.87       0.61
C       4.12       6.87      -0.61
C       4.07       6.87      -2.02
C       2.85       6.87      -2.74
C       2.86       6.86      -4.13
C       5.20       6.86      -4.16
C       5.25       6.86      -2.77
Br       7.13       6.87       1.83
Br       1.19       6.87      -1.83
N       4.31       6.88       4.82
N       4.02       6.86      -4.82
