26

H       1.98       8.98       6.86
H       6.17       8.98       6.86
H       1.98      18.44       6.86
H       6.17      18.44       6.86
H       6.34      12.53       6.86
H       1.81      12.53       6.86
H       6.34      14.89       6.86
H       1.81      14.89       6.85
C       2.90       9.56       6.86
C       2.86      10.95       6.86
C       4.07      11.69       6.86
C       5.28      10.95       6.86
C       5.25       9.56       6.86
C       4.07      13.10       6.86
C       4.07      14.33       6.86
C       4.07      15.74       6.86
C       2.86      16.47       6.86
C       2.90      17.87       6.86
C       5.25      17.86       6.86
C       5.28      16.47       6.86
N       4.07       8.90       6.86
N       4.07      18.52       6.86
O       6.49      11.57       6.86
O       1.66      11.57       6.86
O       6.49      15.86       6.86
O       1.66      15.86       6.85
