20

C      12.86      -0.37      28.28
C      14.89       0.71      26.56
C      13.97       0.30      28.78
C      13.77       0.03      26.04
C      14.96       0.82      27.95
C      12.78      -0.49      26.88
C      14.67       0.76      30.05
C      15.78       1.36      29.10
H      13.68      -0.07      24.96
H      11.92      -1.01      26.45
H      14.11       1.50      30.64
H      15.00      -0.04      30.72
H      16.78       0.91      29.21
H      15.89       2.45      29.13
C      15.94       1.27      25.66
O      16.91       1.88      26.23
O      15.79       1.10      24.40
C      11.80      -0.94      29.17
O      11.98      -0.77      30.42
O      10.82      -1.54      28.61
