13

O       4.29       2.48       4.10
H       3.46       0.71       3.37
H       3.18       2.17       2.36
O       5.00       0.45       1.31
O       6.21       1.99       2.47
H       2.34       2.65       4.84
H       3.47       1.67       5.85
O       4.83       4.39       5.74
O       2.90       4.11       6.90
C       5.16       1.35       2.21
C       3.91       1.65       3.01
C       3.75       3.80       6.00
C       3.38       2.56       5.20
