22

O      10.94       3.88       6.65
O       7.36       6.53       0.79
H      11.44       4.81       2.82
H       8.59       3.06       7.03
H       7.04       3.44       7.42
H       9.71       5.89       1.39
H       6.43       6.42       5.65
H       6.05       4.76       5.08
H       8.27       5.51       7.06
C       8.90       4.95       5.04
C      10.18       4.66       4.56
C      10.45       5.02       3.22
C       9.48       5.63       2.43
C       8.18       5.91       2.91
C       7.93       5.55       4.24
C       6.86       5.46       5.31
C       7.98       4.83       6.24
C      11.21       4.00       5.41
C       7.15       6.53       2.05
N       7.72       3.45       6.66
O       6.12       7.00       2.65
O      12.28       3.62       4.83
