39

C      -0.27      15.29       4.68
H      -2.72       9.15       8.38
H      -0.25       9.17       8.29
H       1.84      10.36       7.76
H       1.75      14.10       5.61
H      -2.89      14.99       4.89
N       5.55      13.16       6.84
N       5.52      12.06       7.67
H      -7.07      14.44       6.48
N      -8.33      13.64       7.97
N       0.31      16.16       4.15
N      -8.31      12.52       8.75
H       4.09      14.18       5.70
H       4.02      10.73       8.33
H      -7.00      10.88       8.95
H      -4.96      14.05       5.83
H      -4.86      10.35       8.06
C      -7.20      11.81       8.44
C      -6.46      12.49       7.45
C      -4.41      13.20       6.24
C      -5.09      12.24       7.02
C      -4.36      11.14       7.49
C      -2.97      11.04       7.32
C      -2.27      12.09       6.64
C      -3.03      13.15       6.05
C      -2.19       9.97       7.88
C      -0.83       9.98       7.83
C      -0.11      11.06       7.22
C      -0.86      12.10       6.59
C      -0.16      13.18       5.98
C      -0.95      14.21       5.33
C      -2.32      14.19       5.37
C       1.29      11.16       7.27
C       1.98      12.25       6.73
C       4.30      13.36       6.39
C       1.24      13.24       6.06
C       3.42      12.39       6.91
C       4.26      11.60       7.71
C      -7.24      13.63       7.18
