48

O      -0.29      13.41      10.77
O      -2.31      15.82       6.33
H      -3.74      14.73       8.82
H      -2.23      12.34       8.65
H      -0.35      16.88       8.43
H       1.29      12.28       9.96
H       1.16      14.50       8.28
H      -0.29      11.42      10.09
H       0.66      11.79      11.57
H      -2.50      17.77       7.07
H      -3.98      16.76       7.17
H      -3.40      17.36       5.58
H       1.04       9.90       6.01
H      -0.07      18.61      10.20
H      -0.78      13.29       2.24
H      -0.96      15.89      14.91
C      -1.82      15.25       7.48
C      -1.82      13.35       8.62
C      -0.76      15.87       8.48
C      -0.60      12.60       5.15
C      -1.54      16.55      12.00
C       0.08      14.55       8.41
C      -2.65      14.68       8.70
C      -0.97      13.92       7.40
C      -1.60      15.31       9.70
C      -0.70      13.21       6.21
C      -1.73      16.01      10.92
C      -0.94      10.46       3.86
C      -0.49      18.55      13.07
C      -0.87      12.29       2.64
C      -0.73      16.83      14.42
C       0.38      12.16      10.57
C      -3.09      17.00       6.56
C      -0.72      11.85       3.97
C      -1.06      17.25      13.11
C      -0.76      13.97       9.61
S      -0.68       9.17       4.98
S      -0.63      19.80      11.88
N      -1.19      11.25       1.84
N      -0.02      17.79      15.05
N      -1.23      10.12       2.59
N       0.15      18.84      14.21
O      -1.40       9.37       6.21
O      -0.83       7.93       4.23
O       0.90       9.23       5.30
O      -1.96      19.87      11.35
O       0.02      20.98      12.44
O       0.37      19.33      10.69
