32

N      14.84      -2.71       8.80
H      13.45       4.32       8.95
H      13.51       5.62      11.48
H      12.92       3.12      12.74
N       9.74      11.18      11.00
N       8.57      10.71      10.43
N      15.99      -2.08       9.20
H      12.78      -2.19       8.77
H      11.38      10.25      11.98
H       7.72       8.79      10.18
C       8.54       9.38      10.58
C      15.64      -0.85       9.63
C       9.70       8.93      11.23
C      14.24      -0.67       9.55
C      10.91       3.84      11.74
C      10.86       3.13      10.33
C      13.54       0.50       9.87
C      10.17       7.61      11.36
C      12.43       3.53      11.85
C      12.41       2.81      10.44
C      12.76       4.89      11.15
C      11.22       5.23      11.05
C      12.72       4.20       9.75
C      11.20       4.50       9.64
C      13.01       1.57      10.13
C      10.63       6.49      11.31
C      13.79      -1.89       9.01
C      10.42      10.12      11.49
I      10.23       5.27       7.93
Br      16.90       0.43      10.14
Br       9.53       1.90       9.77
Br       9.63       3.58      13.13
