16

H      26.33      12.85       3.27
H      30.28      10.30       4.87
C      29.24      12.16       4.95
C      27.39      10.96       3.18
C      28.11      12.86       4.48
C      28.51      10.24       3.64
C      27.20      12.28       3.61
C      29.41      10.84       4.51
C      30.24      12.76       5.89
C      26.41      10.33       2.25
O      31.20      11.99       6.25
F      27.86      14.14       4.85
O      30.07      13.96       6.25
O      25.42      11.06       1.89
O      26.64       9.13       1.89
H      28.65       9.21       3.30
