23

N       4.16       6.36      10.09
N       4.25       3.78      14.56
N       4.84       2.43      16.21
C       4.32       7.44       8.18
H       4.50       8.16       7.39
C       4.51       7.58       9.53
H       4.91       8.40      10.11
C       4.22       6.01      11.45
C       4.39       6.85      12.53
H       4.44       7.94      12.48
H       4.50       6.64      14.72
C       4.43       6.14      13.76
H       6.25       3.84      15.43
C       4.30       4.79      13.58
C       5.26       3.40      15.41
H       2.94       1.41      16.37
H       2.23       3.09      14.26
C       3.52       2.16      15.86
H       3.41       4.53       9.23
C       3.15       2.98      14.83
C       3.78       5.54       9.07
S       4.12       4.35      11.91
N       3.87       6.16       7.91
