53

C      14.93       7.79      22.28
C      11.63      10.25      16.81
C      14.17       6.31      20.53
Si      15.37       9.87      18.67
C      12.65      10.11      17.75
C      14.46       7.30      19.58
C      16.15      14.11      23.01
O      17.33      14.31      23.46
C      19.55       8.82      14.33
O      20.22       9.80      13.88
H      18.08      12.74      21.72
C      15.98      13.21      21.84
O      15.10      14.64      23.50
H      19.11      11.14      15.61
C      18.66       9.04      15.50
O      19.60       7.64      13.84
H      17.79      11.11      19.87
C      15.65      11.40      19.71
C      16.88       9.49      17.62
H      17.50      11.56      17.47
O      10.60      11.61      13.91
O      14.97       4.79      23.41
C      17.10      12.56      21.29
H      13.55      11.93      19.83
C      18.53      10.32      16.04
H      16.49       7.36      17.51
O      10.23       9.41      14.05
O      12.82       5.40      23.30
C      16.93      11.65      20.25
H      13.86      13.51      21.72
C      17.64      10.54      17.09
H      18.05       6.98      15.62
C      14.55      12.11      20.23
C      17.06       8.19      17.11
H      15.62       9.72      21.67
H      15.34      10.17      15.67
C      14.71      13.00      21.29
C      17.94       7.97      16.05
H      15.11       7.99      23.34
H      13.55      10.43      14.00
C      14.00      10.07      17.38
C      14.98       8.54      19.96
H      13.76       5.35      20.22
H      10.59      10.27      17.11
C      10.87      10.46      14.43
C      14.04       5.53      22.91
H      14.25       7.11      18.53
H      12.39       9.99      18.80
C      11.95      10.36      15.45
C      14.39       6.56      21.89
C      14.30      10.20      16.01
C      15.22       8.76      21.33
C      13.30      10.34      15.06
