23

H       5.43       7.32      16.58
H       2.97       7.46      16.90
H       3.26      11.69      16.07
H       5.70      11.35      15.70
H       1.36       8.21      18.27
H      -1.11       8.36      18.57
H      -1.33      11.38      15.54
H       1.14      11.25      15.21
O      -3.39       9.19      18.13
O      -3.50      10.78      16.55
N       5.66       9.32      16.11
C       4.90       8.27      16.46
C       3.53       8.36      16.66
C       2.88       9.59      16.51
C       3.69      10.69      16.17
C       5.05      10.52      15.97
C       1.43       9.71      16.71
C       0.77       8.90      17.66
C      -0.60       8.98      17.84
C      -1.36       9.88      17.08
C      -0.72      10.70      16.14
C       0.66      10.62      15.96
C      -2.85       9.94      17.28
