32

C      12.67       2.05       5.41
C      12.74       0.60       5.92
H      12.54       2.76       6.24
C      12.82      -0.39       4.76
H      11.84       2.18       4.71
C      13.95       0.46       6.87
H      13.60       2.33       4.88
C      14.10      -0.90       7.56
H      11.81       0.40       6.48
C      13.42      -4.74       7.95
H      13.77      -0.27       4.21
C      12.68      -3.55       8.05
H      12.00      -0.23       4.05
C      13.02      -2.50       9.08
H      12.76      -1.43       5.10
C      13.04      -5.71       7.03
H      14.86       0.64       6.28
C      11.28      -4.39       6.29
H      13.91       1.25       7.64
C      11.59      -3.38       7.20
H      14.13      -1.70       6.81
H      14.29      -4.90       8.59
H      12.30      -2.53       9.90
C      15.46      -0.92       8.29
H      14.01      -2.70       9.52
N      13.04      -1.12       8.55
H      13.58      -6.65       6.94
N      11.99      -5.53       6.21
H      10.44      -4.30       5.60
O      15.52      -0.51       9.50
H      10.96      -2.49       7.22
O      16.47      -1.31       7.63
