18

C       1.64       4.23       1.87
O       0.31       1.13       7.46
O       2.57       1.14       7.42
C       1.42       2.11       5.60
H       3.63       2.79       3.05
H      -0.49       3.97       3.44
H       3.45       1.55       5.23
C       1.57       3.47       3.15
C       0.26       2.77       5.09
C       2.71       2.79       3.64
C       0.38       3.44       3.85
C       2.61       2.11       4.84
O       0.54       4.48       1.29
O       2.80       4.58       1.45
H      -1.05       2.15       6.53
H      -1.73       3.21       5.32
N      -0.92       2.81       5.77
C       1.43       1.42       6.91
