40

H       1.93      -5.17      23.40
H       2.15      -9.50      23.39
H       2.16      -5.17      18.94
H       1.93      -9.50      18.94
H       0.30      -5.38      26.98
H       3.79      -9.29      26.98
H       3.79      -5.38      15.37
H       0.30      -9.29      15.37
C       2.04      -7.33      14.80
C       2.05      -7.33      27.54
C       2.05      -7.33      26.03
C       1.95      -6.13      25.31
C       1.98      -6.13      23.92
C       2.04      -7.33      23.19
C       2.11      -8.54      23.91
C       2.14      -8.54      25.31
C       2.04      -7.33      21.78
C       2.04      -7.33      20.56
C       2.04      -7.33      19.15
C       2.11      -6.13      18.43
C       2.14      -6.13      17.03
C       2.04      -7.33      16.31
C       1.95      -8.54      17.03
C       1.98      -8.54      18.43
C       1.85      -4.78      25.96
C       2.24      -9.89      25.96
C       2.24      -4.78      16.38
C       1.85      -9.89      16.38
O       1.08      -6.75      14.20
O       3.01      -7.91      14.20
O       1.08      -7.92      28.14
O       3.02      -6.75      28.14
O       0.98      -4.68      27.00
O       2.53      -3.84      25.60
O       3.11      -9.99      26.99
O       1.56     -10.82      25.60
O       3.11      -4.68      15.35
O       1.56      -3.84      16.74
O       0.98      -9.99      15.35
O       2.53     -10.82      16.74
