16

C       4.73       2.84      14.46
H       2.60       1.18      14.49
H       6.90      -1.31      14.52
C       4.74       1.34      14.49
H       6.89       1.20      14.50
C       3.53       0.63      14.50
C       5.96      -0.75      14.52
C       3.54      -0.76      14.54
C       5.95       0.64      14.50
H       2.61      -1.33      14.56
C       4.75      -1.46      14.54
O       5.89      -3.54      14.43
O       3.64      -3.55      14.69
O       3.61       3.41      14.31
O       5.85       3.43      14.60
C       4.76      -2.96      14.56
