20

H      22.55       6.02      10.87
H      23.52       8.29      11.44
H      21.83       9.61      10.39
H      21.83       8.02       9.56
H      20.04       8.92      11.87
H      19.83       6.33      10.51
H      20.76       5.28      12.37
H      20.81       6.82      13.25
C      23.39       6.07      12.81
C      22.39       6.61      11.80
C      21.67       8.53      10.53
C      20.21       8.29      10.98
C      20.93       6.35      12.26
C      19.26       8.77       9.90
N      22.55       8.04      11.58
N      19.94       6.90      11.35
O      24.37       6.81      13.12
O      23.15       4.89      13.24
O      18.53       7.91       9.31
O      19.30      10.02       9.66
