12

O       4.62       6.79       6.93
O       2.47      13.98      14.41
C       3.49       8.16       8.39
C       3.61      12.61      12.95
C       3.48       7.17       7.34
C       3.51       9.01       9.27
C       3.53       9.95      10.23
C       3.56      10.81      11.11
C       3.59      11.75      12.07
C       3.62      13.60      13.99
O       2.34       6.79       6.92
O       4.76      13.97      14.41
