26

Br       0.97      10.68       9.95
Br       0.97      13.94      18.47
O       2.89       7.15      11.90
O       1.01       7.75      10.79
H       1.30      12.62      12.02
H       1.30      11.99      16.40
H       2.81      16.25      14.37
H       2.83      14.17      13.00
H       2.81       8.36      14.05
H       2.83      10.44      15.41
O       2.90      17.46      16.52
O       1.02      16.87      17.63
C       1.97       7.98      11.60
C       1.97      16.64      16.82
C       1.99       9.29      12.30
C       1.99      15.32      16.12
C       1.57      10.51      11.74
C       1.63      11.69      12.48
C       1.57      14.10      16.68
C       1.63      12.92      15.94
C       2.46      15.31      14.79
C       2.46      14.15      14.03
C       2.46       9.31      13.63
C       2.46      10.47      14.39
C       2.05      11.68      13.82
C       2.05      12.93      14.60
