26

O      -6.54       2.71      19.05
H      -5.33       4.53      21.61
H      -5.99       5.16      20.09
O      -5.37       1.53      20.59
H      -4.44       6.90      20.14
H      -3.54       6.14      17.94
H      -3.78       6.26      21.66
H      -5.08       4.38      17.88
H      -3.75       3.22      17.82
H      -3.44       2.84      21.55
H      -2.80       2.29      20.00
H      -1.24       4.03      20.03
O      -2.03       7.76      19.21
H      -2.22       4.97      17.85
O      -0.71       6.57      20.63
H      -1.88       4.57      21.58
C      -5.54       2.53      19.82
C      -1.75       6.72      19.91
C      -5.07       4.84      20.59
C      -4.03       6.00      20.62
C      -2.74       5.57      19.87
C      -3.13       5.24      18.41
C      -4.15       4.08      18.38
C      -4.48       3.63      19.82
C      -3.20       3.17      20.53
C      -2.17       4.32      20.55
