25

C       1.89       0.82      10.69
C       1.10      -0.27      11.14
C      -1.16      -1.33      11.49
C      -0.34      -0.34      11.06
C      -2.61      -1.16      11.56
C      -3.38      -0.19      11.01
H       1.57       1.71      10.16
H      -0.80       0.57      10.68
H      -3.10      -1.87      12.24
H      -2.93       0.51      10.30
C       2.06      -1.11      11.75
H       1.94      -2.06      12.25
C      -0.62      -2.62      12.07
C      -5.45       1.29      11.17
H      -5.22       2.10      10.48
N       3.18       0.64      11.01
N       3.28      -0.56      11.67
N      -6.55       1.34      11.94
H      -1.42      -3.35      12.22
H       0.13      -3.07      11.41
H      -0.14      -2.45      13.05
H      -5.37      -1.50      12.89
N      -6.59       0.21      12.69
C      -5.52      -0.54      12.40
C      -4.73       0.11      11.43
