22

H       0.97       7.91       2.02
H      -3.53       7.10       3.48
H      -4.55       5.94       5.41
H      -0.65       4.85       6.88
H       2.42       6.70       3.67
H      -3.10       4.78       7.09
C      -1.48       6.65       4.05
C      -0.86       7.33       2.96
C       0.52       7.37       2.85
C       1.33       6.70       3.79
C       0.77       6.06       4.87
C      -1.66       7.96       1.87
C       1.69       5.47       5.89
C      -2.89       6.61       4.22
C      -3.46       5.96       5.30
C      -2.64       5.31       6.25
C      -1.27       5.34       6.13
C      -0.65       6.02       5.04
O       2.56       4.62       5.48
O       1.57       5.89       7.09
O      -2.49       7.20       1.26
O      -1.44       9.19       1.61
