33

H       6.14       1.67      11.00
H       2.27      -2.43      16.70
H       1.25      -0.29      15.94
H       1.31       1.69      14.51
H       7.20      -2.37      13.35
H       6.11      -3.65      15.19
H       2.53       4.38      12.47
H       1.28       3.18      12.22
H       1.86       3.52      13.86
H       7.21      -0.42      11.82
C       4.33       3.54      10.71
C       3.23       2.34      12.68
C       4.29       2.45      11.75
C       5.33       1.52      11.71
C       5.34       0.40      12.56
C       4.26       0.24      13.48
C       3.21       1.21      13.54
C       6.39      -0.57      12.53
C       6.38      -1.65      13.37
C       5.31      -1.85      14.30
C       4.24      -0.90      14.33
C       3.14      -1.10      15.23
C       2.10      -0.12      15.27
C       2.14       0.99      14.47
C       5.28      -2.94      15.18
C       4.19      -3.15      16.03
C       3.12      -2.25      16.04
C       4.18      -4.33      16.93
C       2.17       3.41      12.82
O       5.47       3.93      10.31
O       3.20       3.95      10.27
O       5.31      -4.82      17.25
O       3.04      -4.78      17.32
