24

H      18.27      19.56      11.27
H      20.92      18.00      11.23
O      21.40      18.33      13.88
O      20.12      20.32      13.07
O      19.00      18.40      14.17
O      19.82      13.63      13.37
H      18.41      19.17      14.30
H      17.74      13.73      12.08
H      15.98      14.76      10.64
H      19.12      19.02       9.81
C      20.04      14.82      12.97
C      19.08      16.79      11.70
C      18.99      15.47      12.14
C      17.84      14.76      11.74
C      16.86      15.34      10.94
C      16.97      16.67      10.49
C      18.09      17.38      10.90
C      18.79      18.71      10.81
C      19.93      18.06      11.69
C      15.94      17.27       9.60
S      20.24      18.90      13.25
O      16.04      18.52       9.38
O      21.07      15.53      13.20
O      15.05      16.48       9.14
