64

H       2.91       5.52       9.86
H       7.13       5.64       7.22
H       4.90       8.96       3.46
H       5.11       8.99      -0.96
H       7.15       5.62      -9.69
H       5.13       8.95      -3.43
H       7.06       5.68      -7.18
H       4.90       9.00       0.99
H       2.83       5.54       7.35
H       4.90       2.25       3.46
H       2.86       5.48      -9.83
H       2.77       5.51      -7.32
H       4.55       2.26      -3.43
H       4.59       2.22      -0.95
H       4.84       2.21       0.98
H       7.20       5.60       9.73
C       3.78       5.56       7.88
C       4.98       5.59       7.16
C       4.89       5.60       2.88
C       4.90       4.38       3.59
C       4.88       3.18       2.89
C       4.90       6.83       3.59
C       5.06       5.55       9.94
C       5.01       5.54      -9.90
C       4.78       4.36      -0.72
C       4.93       6.85      -0.72
C       5.10       5.55      11.44
C       4.85       5.60      -1.41
C       4.67       3.18      -1.46
C       4.64       3.19      -2.86
C       4.74       4.38      -3.55
C       4.85       5.60      -2.85
C       4.95       6.83      -3.56
C       4.97       6.85      -5.04
C       4.74       4.35      -5.03
C       3.72       5.54      -7.85
C       3.78       5.52      -9.24
C       6.20       5.60      -9.16
C       6.15       5.63      -7.77
C       4.91       5.59      -7.12
C       4.83       4.36       0.75
C       4.87       5.60       1.44
C       4.90       6.85       0.75
C       4.85       3.17       1.49
C       4.90       8.03       2.89
C       5.03       8.03      -1.46
C       5.04       8.02      -2.86
C       5.05       5.47     -11.39
C       4.90       8.04       1.49
C       4.93       4.35       5.06
C       4.92       6.85       5.07
C       6.21       5.61       7.81
C       6.25       5.59       9.20
C       3.83       5.54       9.27
N       4.94       5.60       5.71
N       4.87       5.60      -5.68
O       4.64       3.31      -5.68
O       4.92       7.90       5.72
O       5.07       7.89      -5.69
O       3.99       5.58      12.06
O       6.25       5.52      11.99
O       3.93       5.57     -12.00
O       6.18       5.31     -11.96
O       4.95       3.30       5.71
