40

N      14.50       2.68      16.68
H      10.81       6.89      19.53
H      10.23       5.97      15.33
N      15.98       4.49      16.00
N      16.85       4.66      15.04
N      15.45       3.26      15.81
H      17.21      -0.30      21.53
H      13.64      -1.88      19.65
N      13.90       4.22      18.46
H      17.60       1.37      12.24
N      13.67       3.66      17.24
N      12.94       5.08      18.64
H      19.01       5.35      13.22
N      16.33       2.23      18.23
N      16.55       1.33      19.14
N      15.13       1.91      17.67
H      12.22       3.82      15.66
H      15.69       1.62      14.45
H      13.60       0.43      17.94
C      10.48       6.82      18.49
C      10.98       6.01      17.46
C      10.19       6.34      16.35
C      16.33      -0.87      21.24
C      15.44      -0.63      20.17
C      14.50      -1.67      20.27
C      18.83       4.36      12.81
C      17.87       3.41      13.17
C      18.11       2.33      12.31
C      16.92       3.52      14.25
C      15.99       2.61      14.74
C      12.10       5.11      17.54
C      12.56       4.17      16.63
C      15.49       0.45      19.21
C      14.56       0.81      18.25
N       9.28       7.27      16.70
N       9.46       7.57      18.03
N      14.80      -2.46      21.32
N      15.94      -1.96      21.92
N      19.15       2.61      11.50
N      19.60       3.87      11.81
