16

O      23.84      22.18      18.19
O      23.84      21.51      20.37
C      26.61      20.99      20.14
C      30.19      21.84      19.28
C      25.91      21.84      19.28
C      28.70      21.84      19.28
O      30.78      20.74      19.57
H      28.56      23.41      17.81
C      24.42      21.84      19.28
H      28.56      20.27      20.75
C      28.00      22.72      18.44
H      26.05      23.34      17.74
O      30.78      22.94      18.98
C      28.00      20.96      20.11
H      26.05      20.34      20.82
C      26.61      22.70      18.42
