16

H      -9.41       1.22      11.92
H      -9.01      -2.32      10.72
O      -7.05      -2.54       9.41
O     -10.99      -1.71      12.20
O      -7.58       0.68      10.83
C     -10.05      -0.78      11.84
C     -10.18       0.53      12.24
C      -8.96      -1.27      11.03
O     -11.16       2.38      13.23
C      -7.86      -0.62      10.58
O     -12.17       0.34      13.51
H     -10.75      -2.57      11.81
H      -6.73       0.86      10.37
C     -11.25       1.10      13.05
O      -5.87      -0.57       9.36
C      -6.86      -1.32       9.72
