26

O       7.53       8.76       9.59
O       7.50       6.80      20.96
O       7.81       6.52       9.70
O       8.27       8.93      20.87
H       6.99       9.85      14.31
H       6.89       5.80      16.26
H       7.06       9.79      11.82
H       7.02       5.82      18.75
H       8.22       5.67      11.93
H       8.40       9.88      18.65
H       8.22       5.73      14.42
H       8.33       9.86      16.16
C       7.67       7.67      10.23
C       7.84       7.86      20.34
C       7.93       6.61      13.85
C       8.02       8.97      16.72
C       7.60       7.79      14.55
C       7.61       7.82      16.02
C       7.28       8.94      13.79
C       7.25       6.69      16.78
C       7.31       8.91      12.40
C       7.31       6.70      18.17
C       7.64       7.73      11.72
C       7.74       7.85      18.85
C       7.95       6.58      12.47
C       8.08       8.99      18.11
