41

H      -1.81      13.92      13.14
H       2.05      12.00      13.29
H       2.94      13.73      11.77
H      -1.64      11.97      14.38
H       1.07      10.50      14.51
H      -2.62      10.32      14.92
H      -1.27       7.21      16.41
H      -4.08       6.53      17.49
H      -4.25       4.40      18.62
H       0.53       3.38      17.84
H      -0.38       5.55      17.10
H       1.07       8.86      15.95
C       1.09      14.78      11.54
C      -0.28      14.83      11.95
C      -0.76      13.85      12.83
C       0.03      12.81      13.33
C       1.39      12.79      12.93
C       1.90      13.74      12.07
C      -0.58      11.79      14.17
C       0.00      10.68      14.66
C      -0.69       9.62      15.40
C      -2.07       9.54      15.44
C      -2.93       8.55      16.05
C      -2.34       7.33      16.60
C      -3.01       6.38      17.29
C      -2.42       5.14      17.77
C      -3.20       4.19      18.42
C      -2.70       2.94      18.84
C      -1.32       2.63      18.61
C      -0.52       3.62      17.99
C      -1.04       4.83      17.58
C      -3.62       2.02      19.53
C      -1.22      15.87      11.50
O      -4.81       2.38      19.83
O      -3.21       0.83      19.80
O      -0.75       1.46      18.93
O      -2.40      15.94      11.96
O      -0.81      16.72      10.60
O       1.65      15.65      10.69
O      -4.18       8.75      16.07
O       0.08       8.72      16.02
