27

C       2.04       6.53      14.99
O       0.62       7.85      13.56
H       4.43       4.67      16.56
C       3.31       5.89      15.20
O       2.64       7.36      12.84
H       0.46       5.70      17.92
C       3.48       5.18      16.42
H       0.09       6.95      15.81
C       2.48       5.09      17.38
O       4.35       1.97      22.79
C       1.24       5.74      17.15
O       2.51       0.79      22.20
H       0.72       3.37      18.53
H       5.10       3.45      20.86
O       4.30       5.92      14.34
C       1.04       6.44      15.99
H       4.73       4.95      18.91
C       2.69       4.27      18.59
O       0.87       1.77      20.51
C       1.68       3.43      19.06
C       1.89       2.58      20.15
C       3.13       2.61      20.84
C       4.13       3.47      20.37
C       3.93       4.29      19.26
C       3.36       1.74      22.02
H       1.25       1.18      21.24
C       1.75       7.26      13.77
