18

O      24.54      -1.56      12.19
O      24.97      -6.73      15.32
C      26.59      -3.22      10.60
C      22.81      -5.12      16.82
O      27.41      -4.10      10.15
O      21.96      -4.27      17.25
O      26.30      -2.10      10.06
O      23.03      -6.29      17.31
H      23.87      -1.25      12.83
H      25.67      -7.01      14.70
C      24.95      -2.80      12.56
C      24.57      -5.48      14.96
C      25.89      -3.55      11.85
C      23.60      -4.75      15.65
C      25.07      -4.76      13.84
C      24.47      -3.50      13.70
S      26.21      -5.10      12.59
S      23.31      -3.18      14.93
