20

C      -5.63       8.77       7.71
H      -4.96       0.85       4.88
I      -0.86       2.36       7.87
H      -3.93       7.76       8.65
N      -3.45      -0.25       5.87
H      -7.75       8.27       5.24
N      -6.58       9.71       7.87
N      -7.50       9.58       6.91
C      -7.14       8.56       6.09
N      -2.36       0.07       6.64
C      -2.32       1.41       6.75
O      -4.82       9.12       9.88
C      -5.94       7.99       6.55
C      -3.40       2.00       6.05
C      -3.78       3.34       5.96
C      -4.21       4.49       5.93
C      -4.73       5.73       6.00
C      -5.28       6.82       6.15
C      -4.07       0.87       5.51
C      -4.71       8.53       8.79
