28

C      12.54      10.59      12.21
C      11.23       7.34       3.82
H      14.59       7.24       3.23
H      14.62       8.15       5.55
C      11.34      10.49      11.46
C      11.24       7.85       5.11
H      14.66       9.31       9.84
C      12.43       6.49       1.80
C      11.32       9.99      10.17
C      12.47       8.16       5.75
H      10.43      10.86      11.93
O      13.56       6.30       1.22
H      10.31       8.02       5.65
H      10.29       7.09       3.33
H      10.39       9.95       9.61
O      11.36      11.62      13.97
O      13.62      11.61      14.07
O      11.31       6.10       1.32
C      12.49       8.66       7.08
C      12.51       9.09       8.22
C      12.51      11.29      13.51
C      12.44       7.13       3.13
F      14.91      10.17      12.22
C      12.52       9.57       9.55
C      13.72       9.64      10.28
C      13.72      10.14      11.58
C      13.67       7.94       5.05
C      13.66       7.43       3.76
