20

H       2.09      15.15      11.87
H      -2.22      13.65      13.85
H       2.08      13.66      13.87
H      -2.21      15.15      11.84
C      -0.05      11.18      17.30
C      -0.02      17.61       8.41
C       1.15      13.99      13.42
C      -1.28      14.82      12.30
C      -0.07      13.56      13.99
C      -0.06      15.25      11.73
C      -1.28      13.99      13.41
C       1.15      14.82      12.31
C      -0.08      12.72      15.12
C      -0.05      16.08      10.59
C      -0.04      16.79       9.60
C      -0.08      12.00      16.11
O       1.11      10.88      17.74
O      -1.16      17.92       7.91
O      -1.18      10.86      17.80
O       1.12      17.93       7.96
