24

O      -1.57      -2.60      10.02
O      -7.44      -6.43       8.14
O      -2.51      -1.69       8.15
H      -2.33      -7.01       8.12
O      -6.49      -7.34      10.01
H      -2.73      -5.21      10.64
H      -6.27      -3.82       7.52
H      -5.45      -4.76      11.32
H      -3.56      -4.27       6.84
H      -6.68      -2.02      10.04
O      -4.11      -7.96       7.85
O      -4.89      -1.07      10.31
C      -3.52      -4.90       9.95
C      -5.49      -4.13       8.21
C      -4.01      -5.72       8.68
C      -5.00      -3.31       9.48
C      -5.51      -5.44       9.06
C      -3.50      -3.59       9.10
C      -5.02      -4.66      10.32
C      -3.99      -4.37       7.84
C      -2.44      -2.54       9.10
C      -6.56      -6.49       9.06
C      -3.45      -6.99       8.19
C      -5.56      -2.04       9.97
