12

C       5.92      15.83      13.06
C       5.87      14.82      12.19
C       5.83      13.89      11.38
O       4.70      12.37      10.05
O       4.95      20.23      16.86
O       7.20      20.43      16.61
O       6.97      12.37      10.09
C       5.83      12.81      10.45
C       6.07      19.89      16.37
C       6.07      18.76      15.47
C       6.03      17.81      14.71
C       5.97      16.78      13.85
