28

H       5.02       2.41       5.90
H       6.81       1.80       8.04
H       9.00       2.67       6.44
C       7.89       2.99       1.43
C       6.72       7.33       5.55
Cl       4.18       5.32       7.07
Cl       9.14       5.68       7.71
O       4.55       4.16      12.19
O       5.55       6.20      12.27
H       7.35       7.52       6.43
H       5.66       7.45       5.80
H       7.00       8.01       4.74
O       7.47       1.95       0.81
O       8.70       3.85       0.96
C       5.34       5.06      11.73
C       6.83       2.70       7.42
C       5.84       3.04       6.26
O       6.98       6.00       5.03
C       7.46       3.17       2.79
C       8.04       3.19       6.56
C       7.05       3.52       5.37
C       7.87       4.64       7.12
C       6.66       4.15       8.02
C       6.89       4.99       5.92
C       5.67       4.49       6.81
C       7.27       3.28       3.99
C       6.36       4.49       9.35
C       5.97       4.77      10.48
