16

C      10.36      -1.49       7.01
C      10.58      -0.68       5.89
C      10.86      -1.34       4.70
C      10.92      -2.76       4.60
C      10.69      -3.56       5.71
C      10.41      -2.90       6.92
H      11.05      -0.75       3.80
N      10.11      -1.19       8.32
H      10.77      -4.64       5.67
C      11.27      -3.40       3.28
N      10.17      -3.38       8.19
N      10.01      -2.33       9.00
H      10.54       0.40       5.94
H      11.33      -2.65       2.47
H      10.52      -4.15       2.99
H      12.25      -3.90       3.33
