12

C       0.94      12.71       3.25
C       0.95      11.68       4.10
C       0.96      10.72       4.88
C       0.98       9.68       5.72
C       1.00       8.73       6.50
O       2.03      15.03       0.97
O      -0.21      15.30       1.31
C       1.05       7.64       7.44
C       0.91      14.74       1.52
O      -0.06       7.30       7.96
O       2.19       7.13       7.66
C       0.93      13.66       2.46
