23

C       7.47       5.84       0.76
C       8.32       1.98       4.99
C       6.95       6.31      -1.55
H       6.75       6.00      -2.58
H       8.88       1.71       2.38
C       8.48       2.69       2.59
C       7.47       7.23       0.97
H       7.70       7.65       1.95
C       7.65       4.29       4.20
H       7.41       4.52       5.24
C       7.20       5.40      -0.54
H       7.15       4.33      -0.77
C       7.42       5.21       3.19
H       6.97       6.18       3.42
C       7.19       8.09      -0.08
H       7.16       9.17       0.05
C       8.28       3.62       1.58
H       8.56       3.37       0.55
N       6.93       7.64      -1.33
O       8.17       2.35       6.21
C       8.16       3.01       3.92
C       7.73       4.89       1.85
O       8.59       0.80       4.60
