18

O       3.84       6.55       4.16
O       6.08       6.12       4.22
O       6.03       4.16      -4.22
H       2.95       5.57      -1.94
H       8.01       4.84       1.39
H       7.40       5.32       2.94
C       4.93       4.47      -3.66
C       4.95       6.21       3.60
C       6.02       5.37       1.46
C       3.92       5.36      -1.50
C       4.95       5.92       2.19
C       4.96       4.82      -2.24
C       4.31       5.59      -0.17
C       5.64       5.20       0.10
S       3.52       6.21       1.23
S       6.41       4.58      -1.31
N       7.21       5.01       1.99
O       3.78       4.50      -4.22
