23

N       2.14       5.87       5.08
H       0.45       4.67       5.06
H      -0.13       5.18       2.68
O      -2.17       9.21       1.63
H       3.39       7.70       2.54
O      -1.18       8.67      -0.33
H       3.81       7.08       4.92
H       2.04       6.50       0.31
H       0.30       6.47       0.68
H       0.08       8.51       2.59
H       1.54      10.51       2.46
H      -0.16      10.98       2.51
H       0.72      11.04       0.95
C       1.07       5.33       4.46
C       0.76       5.62       3.13
C       1.58       6.50       2.41
C       2.69       7.04       3.06
C       2.94       6.71       4.38
C       1.27       6.89       0.99
C       0.20       9.03       1.62
C      -1.16       8.96       0.91
C       0.60      10.49       1.89
N       1.22       8.36       0.80
