42

C       6.06       8.28      11.16
H       5.93       8.36      10.08
C      -1.17       8.57      11.05
H      -0.92       8.62       9.99
H       5.74       8.62      14.40
C       5.97       8.41      13.36
H       1.75       8.14      11.86
C      -1.21       8.59      13.25
H      -0.98       8.63      14.31
H       3.56       9.30      11.03
H       0.45      10.26      15.27
H      -1.02      12.11      16.01
H      -1.41      14.07      14.52
H      -0.28      14.19      12.31
C       0.92      11.15      13.35
C       0.29      11.12      14.61
C      -0.53      12.16      15.03
H       1.19      12.33      11.56
C      -0.12      13.33      12.96
C       0.71      12.28      12.54
C       3.72      10.45      14.28
C      -0.75      13.26      14.20
H       5.02      11.93      13.40
H       2.54       9.07      15.44
H       5.81      12.80      15.60
N       7.05       7.52      11.67
N      -2.45       8.38      11.45
H       3.34       9.93      17.64
N       6.98       7.59      13.03
C       4.66      11.49      14.34
C       5.10      11.98      15.56
N      -2.46       8.37      12.82
C       3.71      10.37      16.71
C       3.25       9.89      15.48
C       4.61      11.43      16.75
H       4.95      11.82      17.71
C       5.31       8.87      12.19
C      -0.33       8.74      12.16
C       1.72      10.01      12.82
C       3.19       9.99      12.98
C       1.11       8.95      12.24
C       4.00       9.46      12.02
