28

H       9.04      16.54       5.34
Cl       8.68      21.44       5.21
H       8.57      20.78       7.87
H       8.66      16.38      12.13
H       8.87      16.47       7.83
H       8.49      20.68      12.33
Cl       8.70      15.62      14.77
O       8.73      19.56      16.93
O       8.21      17.35      17.00
H       8.47      20.52      14.83
O       9.36      19.66       3.08
O       8.86      17.44       3.19
C       8.50      18.42      16.38
C       9.05      18.59       3.71
C       8.93      18.67       5.20
C       8.94      17.46       5.92
C       8.85      17.42       7.30
C       8.72      18.62       8.02
C       8.68      19.84       7.32
C       8.78      19.87       5.93
C       8.64      18.61       9.43
C       8.60      18.58      10.65
C       8.57      18.53      12.06
C       8.61      17.29      12.72
C       8.60      17.21      14.11
C       8.54      18.39      14.89
C       8.51      19.62      14.21
C       8.52      19.71      12.83
