26

H      15.03       4.58       1.86
H      15.62       4.07       0.27
H      14.04       2.35       0.24
H      13.45       2.87       1.83
H      13.06       3.31      -1.86
H      11.75       4.49      -1.79
H      14.61       5.06      -1.83
O      16.18       6.54      -0.58
O      15.04       7.72       0.99
H      12.46       6.98       0.57
H      13.16       6.29       2.02
H      10.88       5.26       0.50
H      11.57       4.58       1.97
H      13.30       6.23      -1.73
O      10.41       2.62       1.00
O      11.53       1.63      -0.72
C      15.19       6.73       0.20
C      11.35       2.57       0.14
C      14.71       4.36       0.82
C      13.66       3.22       0.80
C      12.35       3.71       0.15
C      12.68       4.17      -1.29
C      13.71       5.32      -1.26
C      14.12       5.64       0.19
C      12.87       6.05       0.99
C      11.82       4.91       0.95
