19

H       5.97       3.56       7.55
H      11.19      -0.64       6.75
H      11.42       0.75       7.82
H      11.37       1.01       6.07
C       7.95       5.69       7.38
C       8.57      -1.77       7.09
C       9.49       0.65       7.03
C       7.02       3.29       7.42
C       8.50      -0.31       7.14
C       8.03       4.23       7.33
C       7.54       1.97       7.33
C       8.94       1.95       7.14
C      10.94       0.42       6.89
S       6.92       0.36       7.38
S       9.61       3.53       7.11
O       6.79       6.24       7.40
O       7.43      -2.36       7.07
O       9.71      -2.34       7.07
O       9.08       6.29       7.40
