20

I       1.58       6.29       9.91
I      -2.19      12.14       9.07
I      -2.04       6.20       9.97
I       1.41      12.25       9.08
O       5.77       8.34       9.31
O      -6.29      10.42       9.51
O      -6.38       8.28      10.30
O       5.71      10.53       9.95
C       5.19       9.42       9.61
C      -5.79       9.32       9.88
C      -0.97       7.99       9.73
C       0.36      10.45       9.34
C       0.43       8.02       9.69
C      -1.04      10.42       9.36
C      -1.73       9.19       9.59
C       1.11       9.26       9.52
C      -3.13       9.18       9.69
C       2.52       9.30       9.53
C       3.74       9.38       9.56
C      -4.34       9.23       9.80
