19

C       8.33      12.79       4.60
C       8.84      10.26       3.50
C       7.43      12.22       3.69
C       9.74      10.82       4.40
C       7.93      14.09       5.25
H       9.02       9.27       3.07
H       6.52      12.74       3.42
H      10.65      10.29       4.69
H       8.47      14.96       3.63
C      10.51      12.69       5.87
C       6.70      10.36       2.19
O      11.35      11.90       6.40
O      10.46      13.96       6.01
O       5.71      11.08       1.85
O       6.95       9.17       1.79
O       8.03      15.20       4.46
O       7.47      14.16       6.37
C       9.50      12.09       4.95
C       7.68      10.96       3.14
