16

S      11.14       7.34      12.88
S      14.73       8.94      11.47
C      10.10       9.51      14.22
O      10.12      10.75      14.52
C      12.39       9.64      13.01
C      13.48       6.64      11.32
C      11.22       9.00      13.42
C      14.63       7.29      10.92
C      12.66       7.49      12.09
C      13.21       8.78      12.25
C      15.73       6.75      10.10
O       9.19       8.66      14.53
O      16.72       7.52       9.89
O      15.58       5.55       9.68
H      13.28       5.60      11.06
Cl      12.84      11.25      13.35
