16

S      11.04       7.36      12.93
S      14.61       8.92      11.42
C      10.03       9.55      14.24
C      12.29       9.67      12.98
C      13.38       6.61      11.39
C      15.65       6.72      10.14
O      10.14      10.73      14.70
C      11.13       9.03      13.43
O       9.04       8.75      14.42
C      14.53       7.25      10.94
C      12.55       7.49      12.12
C      13.10       8.78      12.23
O      16.56       7.57       9.84
Br      12.80      11.44      13.28
Br      12.87       4.83      11.10
O      15.63       5.49       9.83
