18

C      24.30       6.01      22.40
O      24.40       7.23      22.78
O      23.33       5.21      22.65
C      29.90       3.31      18.24
N      29.59       6.15      19.36
H      29.60       6.94      19.99
H      30.46       5.89      18.89
C      28.70       5.14      19.57
C      25.53       4.21      21.07
C      28.81       3.84      19.03
C      25.41       5.48      21.60
C      26.73       4.07      20.34
C      27.50       5.25      20.32
O      29.82       2.08      17.88
O      30.87       4.12      17.96
H      24.78       3.44      21.22
S      27.46       2.80      19.44
S      26.75       6.52      21.21
