13

H      13.77       5.37       5.32
O      14.49       6.32       8.09
C      13.93       5.17       8.20
O      15.08       7.22       3.90
H      14.96       3.33       7.99
C      15.48       6.56       4.89
O      12.98       4.94       9.00
H      14.92       4.59       4.25
C      14.46       4.04       7.32
N      15.44       4.52       6.33
H      13.61       3.53       6.84
O      16.38       6.99       5.69
C      14.85       5.20       5.16
