22

C       5.71       7.61      10.31
C       1.77       6.93      11.66
C       1.04       8.71      10.35
H       0.16       9.27      10.00
H       4.89       9.16       9.13
H       2.51       9.85       9.28
H       7.43       4.56      13.14
N       0.78       7.66      11.17
H       1.47       6.12      12.32
N       6.67       6.01      11.86
F       2.96       5.02      13.36
F       5.15       3.71      14.17
F       6.89       7.69       9.69
C       2.32       9.02       9.96
C       6.53       5.05      12.77
C       5.27       4.69      13.26
C       4.14       5.37      12.82
C       4.24       6.39      11.85
C       5.57       6.64      11.37
C       3.13       7.17      11.34
C       3.39       8.23      10.41
C       4.70       8.41       9.90
