86

C      14.03       6.00      10.09
C      14.79       7.08      10.88
C      14.64       8.45      10.22
C      15.08       8.42       8.75
C      14.35       7.32       7.98
C      14.53       5.95       8.64
C      14.33       7.98      13.09
C      14.00       7.90      14.49
C      13.53       6.69      15.11
C      13.27       6.68      16.53
C      13.45       7.86      17.23
C      13.88       9.07      16.63
C      14.16       9.06      15.27
C      13.46      11.67      19.35
C      13.32      10.49      18.63
C      14.04      10.29      17.44
C      14.93      11.32      17.08
C      15.03      12.47      17.85
C      12.84       5.38      17.23
C      13.92       4.29      17.05
C      11.49       4.90      16.66
C      12.67       5.59      18.75
C      13.98       3.60      10.25
C      13.61       0.77      12.80
C      13.43      -0.25      11.88
C      13.42      -0.06      10.48
C      13.69       1.21       9.99
C      13.85       2.30      10.86
C      13.75       2.11      12.28
C      11.75      -3.18       9.18
C      12.21      -2.20      10.05
C      13.03      -1.16       9.58
C      13.38      -1.21       8.22
C      12.89      -2.23       7.41
C      13.64       0.51      14.31
C      14.97       1.02      14.91
H      12.97       6.29      10.07
C      12.45       1.21      15.00
C      13.55      -1.00      14.63
H      15.86       6.80      10.87
H      15.24       9.20      10.76
H      13.58       8.77      10.29
H      14.91       9.40       8.29
H      16.16       8.23       8.71
H      14.71       7.28       6.94
H      13.28       7.56       7.92
H      13.98       5.19       8.07
H      15.59       5.66       8.63
H      14.61       8.98      12.73
H      13.29       7.86      18.30
H      14.48       9.98      14.76
H      12.90      11.87      20.27
H      12.60       9.75      18.98
H      15.57      11.23      16.20
H      15.71      13.29      17.61
H      14.87       4.60      17.49
H      14.09       4.05      15.99
H      13.59       3.37      17.56
H      11.55       4.69      15.59
H      10.71       5.66      16.82
H      11.17       3.98      17.18
H      11.89       6.33      18.98
H      13.60       5.91      19.23
N      14.09       4.74      10.85
H      12.37       4.64      19.21
H      13.95       3.57       9.15
N      14.36       6.97      12.27
H      13.30      -1.26      12.26
H      13.69       1.41       8.92
H      11.06      -3.95       9.52
N      14.29      12.66      18.97
N      12.07      -3.21       7.87
H      11.86      -2.22      11.08
H      14.04      -0.46       7.78
H      13.15      -2.28       6.35
H      15.83       0.46      14.51
O      13.77       3.12      13.10
H      14.97       0.88      16.00
O      13.32       5.61      14.41
H      15.12       2.09      14.71
H      12.47       1.01      16.08
H      11.50       0.82      14.60
H      12.47       2.29      14.84
H      13.63      -1.15      15.71
H      14.37      -1.57      14.16
H      12.59      -1.43      14.30
