28

C       4.83       2.24      10.95
C       3.52       6.06      17.24
C       4.64       3.08      12.05
C       4.59       6.32      16.33
H       2.86       3.07      13.41
C       5.48       7.06      17.12
H       5.91       3.77      13.67
H       4.07       4.93      14.81
C       4.57       6.11      11.47
I       6.41       2.21       9.60
H       4.36       5.38      10.68
H       3.63       6.63      11.74
H       5.24       6.87      11.05
I       1.74       5.06      16.82
H       6.04       8.08      12.93
H       5.90       8.21      14.70
H       7.26       7.33      13.97
H       6.46       7.45      16.87
N       3.76       1.40      10.80
C       6.18       7.54      13.88
N       2.88       1.67      11.82
N       3.73       6.58      18.44
C       5.39       4.12      12.78
N       4.96       7.18      18.36
C       4.70       5.81      14.98
C       5.18       5.46      12.68
C       3.40       2.67      12.55
C       5.38       6.27      13.90
