26

O       3.12       1.65       5.38
O       6.75      -4.41       6.59
O       9.63      -1.39       7.74
H       9.13       2.37       7.24
H       3.62      -2.11       5.88
H       5.01       2.51       6.05
H       7.74      -2.24       7.07
H       2.51      -0.29       5.40
H      10.23       0.55       7.73
C       7.12       4.08       6.59
C       5.63      -3.81       6.54
C       7.07       2.58       6.63
C       5.68      -2.31       6.49
C       4.58      -0.19       6.03
C       8.16       0.45       7.09
C       4.54      -1.57       6.12
C       8.21       1.83       7.00
C       6.86      -1.66       6.80
C       5.89       1.92       6.33
C       6.95      -0.25       6.76
C       5.80       0.51       6.36
C       3.33       0.45       5.57
C       9.42      -0.19       7.55
O       5.99       4.67       6.54
O       4.48      -4.37       6.52
O       8.27       4.63       6.61
