19

H      -2.50      -0.42       4.49
H      -4.31       0.77       2.32
H      -4.35      -0.91       2.91
H      -6.00       1.18       3.92
H      -5.60      -0.27       4.86
H      -4.12       0.89       6.24
H      -2.16       1.90       5.28
H      -3.08       2.52       3.88
C      -1.69       0.50       2.75
C      -2.79       0.38       3.79
C      -4.20       0.14       3.22
C      -5.17       0.59       4.33
C      -4.32       1.45       5.31
C      -2.98       1.69       4.59
C      -4.94       2.76       5.73
O      -0.58      -0.07       3.01
O      -1.97       1.19       1.72
O      -5.67       3.37       4.88
O      -4.64       3.18       6.90
