44

O       9.86       8.43      13.37
O      11.41       9.56      12.15
O      12.29      -4.21      13.88
O      13.92      -4.85      12.42
C      10.88       8.50      12.62
C      11.61       7.23      12.28
C      10.99       5.97      12.35
C      11.70       4.81      12.03
C      13.05       4.89      11.64
C      13.68       6.15      11.66
C      12.97       7.30      11.95
C      13.80       3.71      11.16
C      14.83       3.90      10.23
C      17.90       2.26       8.99
C      18.93       2.45       8.09
H       9.94       5.91      12.64
H      11.21       3.84      12.04
H      14.75       6.22      11.44
H      13.46       8.27      11.94
H      15.04       4.90       9.85
H      18.04       1.56       9.82
H      19.88       1.93       8.18
C      13.20      -3.99      13.02
C      13.40      -2.57      12.57
C      13.01      -1.47      13.35
C      13.22      -0.17      12.90
C      13.81       0.06      11.64
C      14.11      -1.05      10.83
C      13.93      -2.34      11.30
C      14.17       1.42      11.17
C      15.26       1.56      10.31
H      12.96       0.69      13.52
H      12.56      -1.65      14.33
H      14.49      -0.89       9.82
H      15.84       0.68      10.02
H      14.19      -3.19      10.67
C      16.63       3.88       7.78
H      15.72       4.46       7.60
C      17.70       4.00       6.90
H      17.65       4.66       6.04
C      15.59       2.81       9.80
C      16.71       2.98       8.85
N      18.83       3.31       7.05
N      13.46       2.48      11.61
