50

H       6.17       5.02      22.85
H       8.31      11.64      24.67
H       6.24       5.28      25.37
H       8.24      11.39      22.15
H       9.48       8.91      28.85
H       9.31       7.85      18.69
H       9.48       9.10      31.31
H       9.34       7.64      16.24
H       5.14       9.03      31.29
H       5.01       7.57      16.21
H       5.17       8.82      28.83
H       5.00       7.75      18.67
C       8.54       8.93      29.39
C       8.38       7.78      18.14
C       8.53       9.04      30.78
C       8.39       7.66      16.76
C       7.31       9.07      31.48
C       7.18       7.60      16.05
C       6.10       9.01      30.76
C       5.96       7.62      16.74
C       6.11       8.89      29.38
C       5.95       7.73      18.13
C       7.33       8.85      28.70
C       7.16       7.82      18.82
C       7.29       9.11      32.95
C       7.19       7.56      14.57
C       7.55       9.24      20.76
C       6.93       7.43      26.76
C       6.78       6.85      21.02
C       7.70       9.82      26.50
C       6.82       7.03      22.49
C       7.66       9.64      25.03
C       7.22       8.26      23.05
C       7.26       8.41      24.47
C       7.58       9.36      22.23
C       6.90       7.31      25.29
C       6.47       5.96      23.31
C       8.01      10.71      24.21
C       6.51       6.10      24.71
C       7.97      10.57      22.81
N       7.16       7.98      20.25
N       7.32       8.69      27.27
O       6.17       9.16      33.58
O       8.31       7.51      13.94
O       6.09       7.62      13.92
O       8.40       9.04      33.60
O       7.83      10.16      20.00
O       6.65       6.51      27.52
O       6.45       5.80      20.47
O       8.03      10.87      27.05
