15

C      10.36      19.95      11.16
O      12.82      20.53      12.48
H       6.53      19.98       8.61
C       9.14      19.56      10.53
C      10.98      21.15      11.06
N       8.42      20.29       9.59
H      10.79      19.21      11.83
H       8.56      17.60      11.45
O      12.57      22.68      11.90
H       8.77      21.12       9.05
C       8.36      18.43      10.78
N       7.22      18.48      10.02
H      10.59      21.96      10.44
C      12.19      21.46      11.85
C       7.29      19.62       9.30
