36

C       0.70      10.81      16.02
C      -5.74      10.80      17.22
C      -5.01       9.72      16.71
C      -3.62       9.72      16.72
C      -5.01      11.89      17.73
C      -3.62      11.89      17.72
C      -2.89      10.80      17.22
C      -1.42      10.80      17.22
C      -0.70      10.80      16.02
C      -0.70      10.81      18.42
C       7.24      10.80      17.22
C      -7.24      10.80      17.22
O       7.80      10.27      18.23
O       7.80      11.34      16.21
O      -7.80      11.34      18.23
O      -7.80      10.27      16.21
F       5.64       8.62      18.19
F       2.96       8.64      18.19
F       5.64      12.99      16.25
F       2.96      12.97      16.24
F       1.35      10.80      19.60
F      -1.35      10.80      19.60
F       1.35      10.80      14.84
F      -1.35      10.80      14.84
F      -2.96      12.97      18.19
F      -5.64      12.99      18.19
F      -2.96       8.64      16.25
F      -5.64       8.62      16.25
C       5.74      10.80      17.22
C       5.01      11.89      16.71
C       3.62      11.89      16.72
C       5.01       9.72      17.73
C       3.62       9.72      17.72
C       2.89      10.80      17.22
C       1.42      10.80      17.22
C       0.70      10.80      18.42
