26

H       6.45       6.60       3.37
H      10.38       5.01      -3.40
H       6.15       5.76      -3.49
H       6.08       5.65      -1.02
H       9.65       3.72       3.39
H       9.68       3.74       0.91
C       8.00       5.08       5.03
C       8.31       5.51      -5.09
C       8.06       5.15       3.54
C       8.26       5.40      -3.61
C       7.18       5.99       2.85
C       7.27       6.05       1.46
C       9.43       5.15      -2.88
C       9.37       5.10      -1.50
C       7.05       5.57      -2.92
C       7.02       5.52      -1.53
C       8.98       4.37       2.84
C       9.00       4.40       1.45
C       8.15       5.25       0.71
C       8.19       5.30      -0.77
O       6.88       5.32       5.59
O       7.24       5.87      -5.68
O       9.43       5.28      -5.66
O       9.08       4.76       5.63
F       6.46       6.95       0.83
F      10.55       4.89      -0.84
