16

C       3.82       2.91       5.78
C       1.55       4.11       6.17
S       2.54       3.73       3.64
C       2.65       3.56       5.37
C       4.04       2.92       3.44
C       4.84       2.55       2.33
C       4.61       2.55       4.67
S       6.12       1.75       4.47
C       6.00       1.90       2.73
C       7.10       1.34       1.93
O       7.01       1.43       0.67
O       8.05       0.81       2.61
O       0.61       4.68       5.50
O       1.61       3.97       7.43
Br       4.35       2.53       7.53
Br       4.30       2.94       0.58
