14

C      15.23       8.75       9.00
C      20.11       9.09       9.61
O      11.95       9.61       8.51
O      22.13       8.33       8.78
O      12.16       8.32      10.39
O      22.08       9.73      10.59
H      17.10       9.75      10.61
H      17.00       8.13       7.98
C      12.60       8.93       9.36
C      21.54       9.05       9.66
C      14.02       8.83       9.15
C      16.62       8.66       8.85
C      17.49       9.21       9.74
C      18.89       9.13       9.63
