12

O       3.67       3.94      10.01
O       1.40       4.07      10.20
O       3.36      -4.11      16.61
O       1.11      -3.82      16.85
C       2.55       2.48      11.40
C       2.51       1.52      12.17
C       2.47       0.48      13.01
C       2.41      -0.48      13.78
C       2.34      -1.52      14.63
C       2.28      -2.46      15.40
C       2.24      -3.55      16.35
C       2.54       3.58      10.47
