29

O      10.51       2.55       7.52
H       9.32      -2.29       8.08
O       8.63       4.58       6.94
O       6.34      -4.62       7.52
O       7.17       4.43       8.68
O       8.25      -4.57       8.77
H      10.17       2.75       5.47
H      11.38       1.51       5.93
F       4.66       0.08       8.28
H      12.90       3.37       6.77
H      12.54       3.53       5.03
H      11.70       4.56       6.21
H       6.01       2.20       8.20
H      10.43      -0.06       7.75
H       5.01      -2.50       8.24
C       7.97       3.94       7.82
C       8.30      -0.37       8.01
C       7.03       0.28       8.10
C       7.27      -4.02       8.16
C       6.97       1.69       8.07
C       9.37       1.80       7.70
C       9.46       0.42       7.81
C      11.01       2.52       6.16
C      12.10       3.56       6.04
C       8.11       2.45       7.86
C       7.20      -2.53       8.18
C       5.87      -0.54       8.20
C       5.92      -1.91       8.20
C       8.36      -1.79       8.10
