18

O       6.45       1.30       1.25
H       6.48       2.78       3.21
O      10.38       1.54       3.90
H       9.55       3.99       5.27
O      10.55       3.23       2.50
O       5.44       3.48       5.43
O       5.79       5.24       4.16
C       7.58       1.58       1.78
N       9.93       2.52       3.30
N       6.15       4.38       4.96
O       6.56       5.59       7.19
O       8.84       5.59       7.06
C       7.67       5.29       6.66
C       8.55       2.95       3.66
C       7.50       2.49       2.94
C       8.57       3.82       4.82
C       7.55       4.45       5.43
O       8.72       1.17       1.40
