21

H      31.30      10.46      14.24
H      37.77       8.21      11.72
H      36.82       7.69      13.14
H      36.30       7.24      11.51
H      34.38       7.48      13.70
C      31.97       7.90      14.88
C      32.76       8.86      14.06
C      32.26      10.17      13.81
C      34.06      10.69      12.55
C      36.22      10.46      11.35
C      37.35      10.78      10.47
C      35.93       9.29      12.04
C      36.76       8.05      12.10
C      34.68       9.41      12.73
C      33.99       8.49      13.52
S      35.02      11.72      11.54
N      32.89      11.07      13.07
O      32.43       6.71      14.95
O      30.90       8.33      15.42
O      37.40      11.99      10.06
O      38.17       9.85      10.17
