12

C       9.65      10.47       3.63
C       9.80      10.24       4.83
C       9.95      10.01       6.14
O       8.20      11.21       2.02
O      10.43      11.10       1.54
C      10.07       9.82       7.35
C      10.20       9.59       8.67
C      10.33       9.35       9.86
C      10.54       8.86      11.20
O      11.73       8.64      11.54
C       9.40      10.94       2.30
O       9.48       8.66      11.90
