20

H      29.31      12.87      17.96
H      30.09      14.47      18.02
H      31.92      13.63      16.48
H      31.12      12.03      16.42
Cl      34.88      11.11      20.91
Cl      32.65      11.97      22.77
C      34.27      11.26      17.83
C      30.10      13.36      21.41
O      34.89      10.20      18.16
O      34.36      11.85      16.70
O      29.05      13.69      20.76
O      30.28      13.48      22.66
C      31.22      12.81      20.58
C      33.31      11.83      18.81
C      31.15      12.91      19.19
C      33.43      11.74      20.22
C      32.15      12.45      18.34
C      32.41      12.20      21.09
C      30.27      13.38      18.05
C      31.41      12.86      17.08
