22

H      14.84       7.00      10.29
H      12.31       7.03      10.32
H      18.48       9.34       7.85
H      21.02       9.36       7.87
H      18.64       7.28      11.64
N      16.35       9.02       9.14
N      21.16       8.44       9.71
N      12.18       8.86       9.36
H      14.70      10.77       8.19
N      16.98       8.23       9.89
H      21.17       7.47      11.54
H      12.16      10.67       8.38
C      20.44       8.94       8.69
C      12.89       7.84       9.89
C      19.05       8.92       8.68
C      14.28       7.83       9.86
C      18.39       8.32       9.77
C      14.94       8.90       9.25
C      19.14       7.76      10.81
C      14.19       9.94       8.68
C      20.53       7.86      10.75
C      12.81       9.88       8.77
