14

C       4.88       2.96      13.34
C       3.77       2.38      13.85
C       4.91       3.82      12.17
C       3.83       4.23      11.48
H       5.82       2.77      13.86
H       2.79       2.49      13.40
C       3.79       1.53      15.06
H       5.88       4.18      11.84
H       2.81       3.93      11.75
O       5.04       5.58       9.95
O       2.79       5.35       9.71
C       3.90       5.11      10.30
O       4.90       1.33      15.65
O       2.66       1.07      15.42
