22

H       1.97       5.15       5.89
H       1.96       5.16       8.35
H       2.00       9.46       8.38
H       2.01       7.32       9.60
H       2.04      10.71       3.74
H       1.93       8.54       2.49
O       3.00       5.28       3.72
C       1.94      11.09       6.36
C       2.03       6.08       3.47
C       1.98       7.34       4.26
C       2.00       7.31       5.69
C       1.96       8.55       3.58
C       1.98       6.09       6.42
C       1.98       6.10       7.80
C       2.00       9.77       5.66
C       2.01       9.76       4.28
C       1.98       8.55       6.41
C       1.99       8.52       7.83
C       2.00       7.33       8.51
O       0.98      11.27       7.17
O       2.84      11.95       6.09
O       1.13       5.88       2.59
