44

H       6.18      10.33       3.08
H       6.07       7.86      -3.19
H       6.43      10.42       5.56
H       6.38       7.91      -5.66
H       9.42       8.61       1.22
H       5.14       9.36      -1.21
H       9.45       9.15      -1.19
H       5.11       8.81       1.22
H       7.82       6.52       0.74
H       8.01      11.38      -0.56
C       7.96       9.45      -7.10
C       7.72       8.79       7.15
C       7.94       7.46       3.55
C       8.13      10.57      -3.43
C       7.27       8.50       2.86
C       7.34       9.56      -2.83
C       6.70       9.54       3.61
C       6.69       8.63      -3.65
C       6.86       9.59       4.98
C       6.88       8.65      -5.03
C       7.61       8.63       5.66
C       7.75       9.56      -5.62
C       8.48       8.77       0.69
C       6.08       9.19      -0.67
C       8.49       9.08      -0.67
C       6.06       8.89       0.69
C       7.29       9.30      -1.37
C       7.26       8.67       1.39
C       8.16       7.56       4.94
C       8.38      10.52      -4.81
S       8.51       5.97       2.69
S       8.80      11.95      -2.46
Br       9.34       6.37       5.83
Br       9.71      11.63      -5.60
O       7.73      10.48      -7.81
O       7.45       7.77       7.85
O       8.31       8.30      -7.52
O       8.02       9.95       7.58
O       9.86       6.19       2.22
O       8.16       4.81       3.46
O       7.53       5.88       1.42
O      10.10      11.58      -1.96
O       8.57      13.17      -3.19
O       7.77      12.06      -1.22
