35

Br      10.78      -2.31       6.10
O      14.40      -4.11       5.94
H      15.44      -4.30       2.97
O      10.93      -0.42       1.08
O      13.13      -3.38       7.66
O       9.49      -2.18       1.13
H      13.74      -6.07       2.39
H      12.64      -4.81       1.77
H      15.03      -4.23       1.24
H      14.33      -3.04       2.36
O      10.35      -4.30       2.61
O      12.50      -1.46       2.99
H       9.07      -4.67       4.21
H      10.50      -5.73       4.14
H       9.65      -6.80       2.05
O      12.96      -4.91       3.84
H       8.44      -6.94       3.35
H       8.23      -5.72       2.06
H      11.35      -0.08       4.06
H      12.35       0.60       2.75
H      14.43      -0.05       4.06
H      13.41       1.10       4.96
H      13.40      -0.63       5.39
C      12.33      -0.13       3.57
C      13.46       0.08       4.55
C      13.46      -5.01       2.47
C      14.64      -4.09       2.25
C      11.21      -3.39       3.14
C      13.31      -3.66       6.40
C      11.38      -2.15       2.60
C      12.17      -3.87       4.18
C      12.21      -3.39       5.46
C      10.54      -1.55       1.53
C       9.73      -5.24       3.53
C       8.96      -6.23       2.69
