30

H       3.69       5.73       0.91
H      -0.43       5.85      -1.10
H       3.73       4.46      -3.40
H       3.66       4.46      -0.93
H      -0.59       4.89       3.28
H      -0.51       4.73       0.80
C       1.40       5.48       4.98
C       1.78       5.11      -5.14
C       1.47       5.36       3.49
C       1.71       5.07      -3.65
C       2.66       5.54       2.79
C       2.74       5.53       1.40
C       0.54       5.40      -2.95
C       0.49       5.52      -1.58
C       2.83       4.75      -2.88
C       2.78       4.79      -1.50
C       0.33       5.09       2.74
C       0.38       5.01       1.35
C       1.58       5.26       0.66
C       1.63       5.20      -0.82
N       3.93       5.64       3.52
N      -0.74       5.53      -3.66
O       2.51       5.50       5.59
O       2.90       4.87      -5.69
O       0.70       5.39      -5.76
O       0.26       5.58       5.52
O       4.43       4.55       3.83
O       4.40       6.76       3.76
O      -1.20       4.46      -4.09
O      -1.29       6.63      -3.73
