17

C       6.57       5.72       2.85
H       8.50       6.45      -2.48
O       8.26       5.01       0.02
C       7.43       6.31      -2.50
C       6.60       5.68      -1.55
O       5.72       6.65       2.66
H       5.08       4.97       0.41
N       5.36       6.47      -3.24
C       7.04       5.13      -0.27
H       5.61       3.85       2.42
N       6.07       4.78       0.62
C       6.41       4.46       1.98
H       7.34       3.89       2.01
N       6.67       6.79      -3.50
C       5.30       5.81      -2.07
H       4.35       5.48      -1.66
O       7.51       5.73       3.70
