13

O      14.12       7.88       4.39
C      13.34       6.41       6.73
C      15.00       7.24       5.04
H      12.63       7.16       6.38
C      14.60       6.30       6.14
C      15.49       5.33       6.62
H      16.49       5.23       6.20
C      15.08       4.50       7.65
O      16.25       7.38       4.79
H      12.05       5.60       8.27
C      13.02       5.55       7.77
N      13.86       4.60       8.22
H      15.74       3.73       8.05
