36

H       4.89       8.91      14.68
H       7.34       8.89      16.18
H       7.11       5.59      11.78
H       5.11       5.41      18.89
H       3.79       9.65      12.83
H       5.70      11.14      12.52
H       4.47      11.30      11.22
H       5.93      10.33      10.93
H       8.44       9.51      18.12
H       6.54      11.04      18.27
H       7.66      11.17      19.67
H       6.16      10.23      19.82
C       5.85       7.40      10.32
C       6.20       7.27      20.45
C       6.07       7.13      14.64
C       6.19       7.09      16.12
C       5.38       8.19      14.03
C       6.85       8.13      16.78
C       5.29       8.35      12.64
C       6.90       8.24      18.18
C       5.93       7.40      11.82
C       6.23       7.25      18.95
C       6.62       6.33      12.41
C       5.60       6.19      18.30
C       6.69       6.21      13.79
C       5.58       6.12      16.91
C       5.19      10.61      11.69
C       6.97      10.50      19.14
N       4.49       9.40      12.13
N       7.68       9.27      18.76
O       6.05       8.50       9.70
O       5.92       8.38      21.01
O       5.60       6.28       9.78
O       6.42       6.17      21.05
F       7.39       5.17      14.33
F       4.92       5.09      16.31
