20

H       6.73       2.60      11.54
O       5.91       4.40      11.39
O       4.12      -1.40      14.67
O       4.21       0.16       9.75
O       2.70       2.11      12.84
O       6.19       1.85      11.86
H       3.47       0.51      14.97
H       6.05      -0.54      10.31
C       4.82       3.80      11.70
H       2.08       1.37      12.93
O       3.67       4.38      11.74
O       5.79      -2.71      12.18
O       3.53      -2.78      12.02
C       4.65      -2.18      12.14
C       4.14       0.18      12.88
C       4.58      -0.70      11.95
C       3.95       1.60      12.56
C       4.94       2.39      12.05
C       3.87      -0.26      14.28
C       4.99      -0.31      10.56
