10

C       0.48      -0.45       9.02
O      -2.17       3.36       8.21
O       3.33      -2.16       8.22
C      -2.35       2.39       9.02
C       2.36      -2.34       9.03
O      -3.32       2.20       9.83
O       2.19      -3.30       9.84
C      -1.34       1.36       9.02
C       1.34      -1.32       9.02
C      -0.47       0.50       9.02
