15

C       1.08       2.46       3.33
C       1.97       2.01       4.30
C       2.50       2.94       5.21
C       2.10       4.28       5.11
C       1.22       4.65       4.10
C       3.47       2.52       6.22
N       0.72       3.76       3.22
N       4.08       1.32       6.22
N       4.89       1.37       7.26
N       4.77       2.55       7.88
N       3.88       3.30       7.24
H       0.63       1.77       2.62
H       2.24       0.96       4.36
H       2.48       5.02       5.81
H       0.90       5.68       3.96
