46

N       6.99      19.70       3.45
N       9.40      23.20       6.33
H       7.67      18.20       5.40
O      10.15      16.58      10.39
H       6.60      20.92       5.09
O       9.83      24.38       1.40
H      10.06      21.04       7.50
O       7.85      16.60      10.39
H      10.97      19.56       6.37
H       7.58      22.24       6.32
O       7.53      24.41       1.40
H      11.49      21.65       5.56
H      12.06      20.71       4.14
H      11.06      22.14       3.89
O      10.54      20.22       2.28
O       9.27      18.65       3.14
O      11.44      17.76       4.71
O       9.58      17.00       5.61
H       8.53      22.22       8.95
H       7.17      21.17       8.51
H       8.56      20.51       9.41
O       6.10      17.99       7.21
O       5.75      20.15       7.00
C       8.67      24.05       1.82
O       6.55      18.55       3.45
O       7.02      20.47       2.50
C       9.00      16.91       9.95
C      10.08      19.33       5.76
O      10.51      23.17       6.89
O       8.84      24.19       5.88
C       7.60      19.19       5.86
C       7.45      20.28       4.82
C       8.65      23.11       2.91
C       8.87      19.44       6.73
C      10.02      20.39       4.61
C       8.69      21.22       4.77
C       8.61      21.88       6.20
C       8.99      20.90       7.31
C       8.59      22.23       3.74
C       8.98      18.50       7.82
C       9.00      17.79       8.81
C      11.23      21.29       4.56
C       8.26      21.21       8.62
N       9.95      19.68       3.21
N      10.36      17.90       5.31
N       6.38      19.09       6.76
