42

C      28.11      17.65      14.44
C      23.93      13.70      16.57
C      28.45      18.16      15.71
C      23.61      13.16      15.31
C      27.70      17.91      16.88
C      24.09      13.69      14.10
C      26.55      17.08      16.77
C      24.86      14.89      14.15
C      26.21      16.50      15.50
C      25.22      15.46      15.42
C      26.92      16.89      14.32
H      30.11      17.88      13.72
H      29.06      16.99      12.62
H      28.93      18.75      12.74
C      25.63      16.81      17.85
C      24.65      14.92      16.62
C      24.77      15.74      17.80
C      26.29      16.56      13.06
H      28.00      17.80      19.02
H      29.28      18.64      18.14
H      27.72      19.44      18.42
C      25.27      15.64      12.98
H      24.68      13.14      12.10
H      23.87      11.86      13.02
H      22.93      13.19      12.32
H      22.69      13.08      18.27
Cl      26.63      17.53      11.67
Cl      23.61      15.56      19.08
Cl      25.44      17.95      19.13
Cl      24.33      15.58      11.54
O      21.54      12.31      16.02
O      29.40      20.20      15.09
O      22.69      11.01      14.58
O      30.67      18.87      16.41
C      22.56      12.07      15.30
C      29.60      19.13      15.75
H      23.69      11.81      17.56
H      24.43      13.05      18.57
C      29.09      17.83      13.31
C      23.66      12.88      17.81
C      28.20      18.47      18.18
C      23.88      12.93      12.81
