32

H       4.93       9.14       5.26
H       9.28      13.92       5.06
H       6.61      14.06       9.65
H       9.91       7.53       8.77
C       7.83       7.82       7.23
C       7.90      13.61       7.37
C       6.67      10.05       7.59
C       9.04      11.39       6.97
C       6.77      11.42       7.85
C       9.06      10.00       7.17
C       7.91      12.11       7.40
C       7.85       9.32       7.33
S       4.97       9.41       7.34
S      10.33      12.15       5.89
S       5.57      12.22       9.00
S      10.69       9.29       7.64
O       8.83       7.27       6.66
O       6.81      14.14       6.99
O       6.84       7.22       7.73
O       8.96      14.21       7.71
O       4.50       8.52       8.35
O       4.24      10.58       6.93
O       5.20       8.54       5.99
O      11.21      13.07       6.54
O      10.84      11.04       5.14
O       9.36      12.93       4.90
O       4.62      13.11       8.39
O       5.16      11.14       9.84
O       6.61      13.08       9.87
O      11.32       8.44       6.67
O      11.37      10.42       8.19
O      10.25       8.45       8.93
