16

S      21.99      13.44      18.30
O      25.41      11.61      18.88
S      21.24      13.62      22.41
O      24.28      12.29      17.01
C      24.43      12.15      18.28
C      23.20      12.68      20.50
C      20.02      14.38      20.21
C      18.80      14.92      22.39
C      19.91      14.37      21.59
C      21.22      13.76      19.81
H      19.26      14.82      19.56
C      21.99      13.30      20.89
Cl      24.30      12.04      21.63
C      23.34      12.68      19.11
O      17.85      15.48      21.75
O      18.91      14.79      23.66
