19

C       3.41       8.90       3.38
C       4.12       9.18       4.66
C       5.40       9.76       4.66
H       5.89       9.97       8.03
H       8.01      10.33       6.76
H       5.89       9.97       3.71
H       8.01      10.33       4.98
C       3.50       8.88       5.87
C       6.06      10.05       5.87
C       7.45      10.64       5.87
H       7.41      11.74       5.87
O       3.88       9.36       9.44
O       2.32       8.21       8.26
H       2.52       8.41       5.87
O       3.88       9.36       2.30
O       2.32       8.21       3.48
C       3.41       8.90       8.36
C       4.13       9.18       7.08
C       5.40       9.76       7.08
