34

C       0.85      14.40       9.41
N       2.01      15.58      25.19
H       4.09      15.57      25.10
H      -0.07      15.57      25.10
N       2.01      14.39       8.72
H       4.18      15.38      22.62
H      -0.15      15.38      22.62
H       4.17      14.94      18.20
H      -0.14      14.94      18.20
H       4.17      14.69      15.72
H      -0.15      14.69      15.72
H       4.18      14.45      11.31
H      -0.15      14.45      11.31
H       4.09      14.39       8.82
H      -0.07      14.39       8.82
C       3.18      15.53      24.51
C       0.85      15.53      24.51
C       3.22      15.42      23.12
C       0.81      15.42      23.12
C       2.01      15.36      22.40
C       2.01      15.23      20.99
C       2.01      15.11      19.77
C       2.01      14.96      18.37
C       3.23      14.89      17.65
C       0.80      14.89      17.65
C       3.23      14.75      16.27
C       0.79      14.75      16.27
C       2.01      14.68      15.56
C       2.01      14.57      14.15
C       2.01      14.51      12.93
C       2.01      14.46      11.52
C       3.22      14.44      10.79
C       0.81      14.44      10.79
C       3.18      14.40       9.41
