20

O      -1.26      11.55      10.30
O      -3.49      11.15      10.06
H      -3.64      17.20       5.33
H      -4.04      15.49       7.10
H      -0.20      13.72       6.24
H       0.20      15.43       4.48
O      -2.51      19.44       1.32
O      -0.26      19.77       1.55
C      -2.40      11.73       9.77
C      -3.12      15.48       6.52
C      -2.14      14.49       6.79
C      -0.95      14.48       6.04
C      -0.72      15.44       5.06
C      -1.69      16.43       4.79
C      -2.89      16.43       5.54
C      -2.33      13.53       7.81
C      -1.49      17.40       3.79
C      -1.38      18.25       2.92
C      -2.42      12.70       8.70
C      -1.37      19.22       1.85
