28

H      12.31       8.02       7.79
H      10.55      11.90       7.23
H      14.47      11.52       9.02
H      13.47      13.28      10.27
H      13.94      15.73      10.39
H      12.35      16.23       6.43
H      11.88      13.79       6.30
C      13.49       9.69       8.49
C      12.37       9.10       7.90
C      11.32       9.90       7.43
C      11.39      11.30       7.57
C      12.52      11.90       8.15
C      13.56      11.08       8.61
C      14.63       8.84       8.94
C      10.13       9.26       6.80
C      12.67      13.36       8.27
C      13.24      13.93       9.42
C      13.49      15.29       9.50
C      13.20      16.13       8.41
C      12.59      15.58       7.27
C      12.32      14.22       7.20
C      13.57      17.56       8.47
O      15.76       9.41       9.13
O      14.45       7.59       9.08
O       9.04       9.90       6.77
O      10.27       8.08       6.33
O      14.13      18.03       9.52
O      13.37      18.34       7.47
