52

C      16.29       6.89      14.56
C      17.93      11.69      14.67
C      17.79      11.78      11.76
C      16.76       6.83      11.69
C      17.99       6.83       7.81
C      16.90      11.76       7.76
C      16.70      11.68       4.85
C      18.40       6.89       4.93
O      17.92      10.41       2.90
O      17.41       8.19       2.85
O      16.71      10.40      16.61
O      17.26       8.18      16.65
H      18.02       6.04      14.44
H      16.21      12.54      14.38
H      15.94      11.84      11.19
H      18.67       6.73      11.38
H      16.08       6.69       8.12
H      18.78      11.90       8.19
H      18.41      12.55       5.08
H      16.66       6.05       5.01
C      17.64       9.29       3.43
O      17.10       5.80      14.66
O      15.14       6.86      14.93
O      17.11      12.78      14.69
O      19.03      11.72      15.16
O      16.75      12.38      11.14
C      17.02       9.29      16.07
O      17.87       6.20      11.21
O      15.65       6.38      11.50
O      18.91      12.25      11.74
O      16.90       6.18       8.29
O      19.11       6.40       7.99
O      17.95      12.41       8.31
O      15.77      12.18       7.87
O      17.50      12.77       4.81
O      15.59      11.69       4.38
O      17.59       5.81       4.81
O      19.55       6.86       4.56
C      17.11       9.29      14.58
C      16.86       8.11      13.86
C      17.00       8.10      12.47
C      17.27       9.30      11.77
C      17.46      10.50      12.50
C      17.44      10.48      13.90
C      17.34       9.30      10.36
C      17.39       9.30       9.14
C      17.44       9.29       7.73
C      17.72       8.09       7.03
C      17.83       8.10       5.64
C      17.56       9.29       4.93
C      17.22      10.47       5.61
C      17.22      10.49       7.01
