22

C       2.35       7.43       3.88
O       2.95       4.33       1.14
C       3.45       7.92       4.63
O       5.19       4.37       1.52
H       6.52       9.20       6.70
C       3.30       8.88       5.66
H       6.87       7.50       4.90
C       4.00       4.79       1.70
H       5.89       5.96       3.18
H       1.69       6.06       2.35
H       1.36       7.85       4.07
H       2.31       9.28       5.88
C       4.18      10.25       7.55
C       4.38       9.31       6.41
C       5.68       8.82       6.11
O       5.22      10.57       8.22
C       5.87       7.89       5.12
C       4.77       7.39       4.37
C       4.91       6.39       3.39
O       2.99      10.62       7.81
C       3.82       5.90       2.69
C       2.53       6.45       2.93
