20

N      14.11       6.12       2.45
N       7.04       5.90       2.29
C      13.45       6.05       1.28
C      13.40       6.13       3.60
C      12.01       6.09       3.61
C      11.31       6.01       2.40
C      12.06       5.98       1.21
H      14.07       6.05       0.39
H      13.98       6.19       4.52
H      11.49       6.15       4.57
H      11.59       5.91       0.24
H       9.57       5.24       4.40
H       9.63       6.68       0.31
H       7.08       5.27       4.26
C       9.83       5.96       2.36
C       9.09       5.56       3.48
C       9.13       6.32       1.20
C       7.70       5.55       3.41
C       7.74       6.26       1.21
H       7.15       6.51       0.32
