18

C       2.32       0.00       6.96
O       2.93      -0.87       3.48
H       1.23       0.00       6.96
C       4.42       0.41       8.10
O       7.20       0.90       7.64
H       4.96       0.73       8.99
C       4.42      -0.41       5.82
O       7.20      -0.90       6.28
H       4.96      -0.73       4.93
C       5.11       0.00       6.96
C       3.02      -0.38       5.81
C       2.28       0.74       9.36
C       6.61       0.00       6.96
C       2.28      -0.74       4.56
O       1.00       0.87       9.34
C       3.02       0.38       8.11
O       1.00      -0.87       4.58
O       2.93       0.87      10.44
