34

H       1.42       8.00       1.79
H       0.06      13.85      -1.94
H      -0.11      11.10      -5.77
H       1.29      10.77       5.62
H       1.57       8.88       4.00
H      -0.06      13.01      -4.16
H       0.82       8.19      -0.56
H       0.05      13.55       0.48
Br      -0.73       7.55      -2.37
Br      -1.34      13.65       2.53
O       0.83       8.07      -5.58
O      -1.05      13.35       5.70
O      -1.44       8.13      -5.63
O       1.20      13.60       5.58
C      -0.30       8.50      -5.21
C       0.10      13.07       5.23
C       0.24      12.00       4.19
C      -0.25       9.61      -4.20
C       1.11       9.81       3.69
C      -0.09      11.98      -3.80
C       0.94      10.84       4.59
C      -0.13      10.93      -4.69
C      -0.19      12.15       2.87
C      -0.28       9.37      -2.83
C       0.15      11.20       1.87
C      -0.09      10.41      -1.87
C       0.73       9.97       2.34
C      -0.07      11.74      -2.41
C       0.02      11.37       0.43
C       0.12      10.24      -0.44
C       0.61       9.02       0.10
C      -0.01      12.67      -0.16
C       0.95       8.91       1.42
C      -0.00      12.85      -1.51
