16

S       6.44       8.45       6.18
Cl       6.46       9.70       9.48
H       6.41       4.81       5.82
C       6.45       8.04       9.05
C       6.43       5.83       6.19
C       6.45       6.96       9.92
C       6.44       6.92       5.34
C       6.44       6.23       7.54
C       6.44       7.63       7.69
O       6.45       8.03      12.01
O       6.48       5.76      11.93
O       6.42       5.78       3.29
O       6.46       8.06       3.29
C       6.46       6.92      11.39
C       6.44       6.92       3.86
S       6.44       5.44       9.07
