40

H       7.76       6.42       0.78
O      13.01       5.97       5.08
O      12.06       3.63       5.28
O      12.63       4.61       3.11
O       9.34       3.78       7.56
O      11.16       5.47       7.17
O       8.87       6.22       7.54
O       6.54       2.44       1.87
H      12.31       3.71       2.87
O       4.55       3.65       2.81
O       5.24       3.99       0.48
O       5.16       6.42       4.00
O       6.56       7.75       2.45
H       6.75       8.10       3.35
O       9.04       5.32      -1.08
O       9.77       3.64       0.66
O       7.70       3.34      -0.51
H       7.18       3.71      -1.25
O       4.69       6.50       1.51
H       9.49       6.96       7.70
H       4.64       4.78       0.57
O       6.21       3.45       5.00
C      11.08       6.56       2.10
C       8.83       5.53       2.56
C      10.12       5.81       2.98
C      10.42       5.41       4.31
C       9.39       5.07       5.22
C       8.06       4.83       4.78
C       7.86       5.01       3.41
C       6.79       5.05       2.33
C       7.95       5.49       1.32
C       6.93       4.29       5.62
S       5.60       6.46       2.63
S       8.76       4.41       0.00
S      12.16       4.91       4.63
S       9.81       5.01       6.99
S       5.71       3.59       1.96
O       6.80       4.68       6.81
O      11.87       7.35       2.69
O      10.92       6.38       0.85
