30

C       4.10       8.34       7.65
C       3.77      10.80       8.08
C       3.50      11.09       6.59
C       3.01      10.40       3.26
C       3.24       9.39       8.44
C       4.16       8.71       6.16
C       3.10       9.79       5.85
C       1.73       9.31       6.40
C       1.79       9.20       7.93
C       3.03      10.08       4.43
C       3.34       9.12       9.86
C       3.42       8.82      11.03
C       3.10      10.99       1.95
Br       0.56      10.49       8.80
O       2.29       7.99      12.86
O       4.57       8.00      12.87
O       4.26      11.29       1.55
O       1.99      11.22       1.34
H       5.15       9.10       5.88
H       5.10       8.32       8.10
H       3.28      11.54       8.73
H       4.85      10.82       8.31
H       4.39      11.52       6.11
H       2.69      11.82       6.48
H       1.41       8.24       8.29
H       1.48       8.34       5.96
H       3.66       7.34       7.81
H       3.98       7.83       5.53
H       0.95      10.01       6.08
C       3.41       8.25      12.35
