36

H       4.79       8.72      13.14
H       4.65       8.69      15.52
H       8.98       8.86      15.72
H       9.06       8.89      13.33
H       3.56       8.61      20.02
H       7.89       8.78      20.23
H       7.75       8.75      22.61
H       3.48       8.58      22.42
H       8.33       9.70      18.69
H       9.01       8.85      17.33
H       8.40       7.92      18.68
H       4.14       9.55      17.07
H       3.53       8.62      18.42
H       4.21       7.77      17.06
C       7.00       8.84      11.55
C       5.54       8.62      24.19
C       6.93       8.82      13.05
C       5.71       8.76      13.72
C       5.65       8.74      15.11
C       6.80       8.77      15.95
C       8.02       8.83      15.22
C       8.09       8.85      13.83
C       6.83       8.76      17.45
C       5.72       8.71      18.30
C       4.52       8.64      20.53
C       5.74       8.69      19.80
C       6.90       8.73      20.64
C       6.83       8.71      22.02
C       5.61       8.65      22.70
C       4.45       8.62      21.92
C       8.21       8.81      18.06
C       4.33       8.66      17.69
O       8.16       8.90      11.02
O       5.89       8.81      10.93
O       4.39       8.58      24.72
O       6.65       8.66      24.82
