24

H      12.86       6.79       6.46
C       8.98       4.51       9.50
H      12.97       3.02       8.61
C       8.07       5.11       8.66
C      10.41       4.51       9.23
C      11.08       5.36       8.42
H       6.40       6.65       6.87
H       5.72       3.32       9.56
N      14.12       5.08       6.41
N      14.14       3.90       7.09
H       8.57       5.70       7.89
H      10.93       3.65       9.66
H      10.59       6.27       8.06
N       4.74       5.42       7.30
N       4.54       4.35       8.16
N       8.57       3.70      10.65
C      13.07       5.80       6.87
O       9.46       3.09      11.28
O       7.37       3.67      10.96
C      13.13       3.88       7.97
C      12.39       5.08       7.86
C       6.00       5.82       7.45
C       5.66       4.13       8.85
C       6.66       5.04       8.44
