30

H      -0.79       9.53       9.34
C      -1.98       9.64      11.76
C      -6.87      15.41       2.01
H      -4.05      11.36      11.43
C      -6.12      15.02       3.25
O      -6.29      15.22       0.89
H      -4.73      12.55       9.37
C      -4.87      14.39       3.18
O      -8.04      15.87       2.18
C      -4.27      13.89       4.32
O      -0.94       8.92      11.69
C      -4.89      14.03       5.58
O      -2.73       9.78      12.78
C      -6.09      14.77       5.65
C      -6.71      15.24       4.50
C      -4.41      13.41       6.80
C      -3.48      11.24      10.51
H      -4.39      14.27       2.20
C      -3.48      12.43       6.92
H      -3.31      13.38       4.24
C      -3.12      11.75       8.15
C      -2.02      10.87       8.16
H      -6.57      14.91       6.62
H      -7.67      15.75       4.55
C      -1.65      10.20       9.33
H      -1.46      10.71       7.24
H      -4.94      13.73       7.71
C      -2.37      10.38      10.51
H      -2.95      12.09       6.02
C      -3.85      11.91       9.35
