34

C      14.78      26.43      13.94
C      13.26      24.90      17.59
C      14.25      25.88      17.63
C      14.77      26.41      18.88
C      17.75      29.40      16.42
C      15.77      27.40      16.39
C      12.77      24.41      16.37
C      14.77      26.40      16.40
H      17.68      29.28      18.56
H      16.15      27.77      19.80
H      17.70      29.34      14.29
H      12.88      24.51      14.23
H      14.37      26.04      13.00
H      12.83      24.47      18.50
N      14.31      25.88      20.08
N      16.28      27.86      12.71
O      18.98      31.12      15.33
O      19.43      30.67      17.50
H      13.34      25.57      20.08
H      14.53      26.43      20.90
H      16.69      28.78      12.71
H      15.71      27.67      11.89
O      11.43      22.81      15.25
O      11.16      23.08      17.49
C      18.79      30.47      16.42
C      11.71      23.36      16.37
C      17.27      28.89      17.62
C      16.28      27.89      17.64
C      15.75      27.37      18.86
C      17.26      28.92      15.20
C      16.28      27.92      15.16
C      15.75      27.40      13.91
C      13.27      24.91      15.17
C      14.26      25.90      15.16
