32

C       4.78       0.31      13.78
C       2.85       1.71      11.02
C       8.17       1.98       8.13
C      10.00       3.49      11.09
O       9.15       2.28      13.97
O       7.86       0.42      14.10
O       3.88       3.98       9.47
O       5.19       2.99       7.92
H       5.42      -0.41      13.24
H       3.78       0.33      13.34
H       4.72       0.01      14.83
H       2.59       0.79      11.56
H       3.26       1.42      10.04
H       1.96       2.32      10.88
H       7.30       1.43       7.73
H       8.83       1.30       8.69
H       8.73       2.43       7.30
H      11.05       3.25      10.89
H       9.90       3.95      12.08
H       9.62       4.17      10.30
O       5.38       1.61      13.77
O       3.79       2.47      11.79
O       7.73       3.07       8.95
O       9.29       2.24      11.06
C       8.17       1.53      13.58
C       4.88       3.25       9.15
C       5.94       1.97      12.57
C       5.12       2.38      11.50
C       5.71       2.72      10.26
C       7.12       2.68      10.12
C       7.93       2.34      11.22
C       7.34       1.99      12.44
