16

O       6.50       0.67       7.82
C       1.66      -0.04       6.61
C       2.42      -0.95       5.86
O      -0.45       0.90       7.13
H       4.19       1.50       8.30
O      -0.38      -0.93       5.79
C       3.80      -0.95       5.97
C       5.95      -0.04       6.91
H       1.90      -1.64       5.20
C       2.30       0.85       7.49
H       1.69       1.54       8.06
C       4.45      -0.06       6.85
C       0.16      -0.02       6.50
H       4.41      -1.63       5.38
O       6.56      -0.73       6.04
C       3.68       0.82       7.61
