13

O       4.50       9.22       0.03
N       2.77       8.90       2.30
H       1.25       8.90       3.81
C       2.29       9.06       3.53
O       6.59      10.60       3.76
N       3.25       9.47       4.38
C       4.11       9.23       2.37
O       5.71       9.80       5.66
H       3.14       9.77       5.38
C       4.43       9.59       3.68
C       4.98       9.08       1.19
O       6.21       8.71       1.38
C       5.66      10.02       4.41
