28

O      -1.63      -5.19      11.87
O      -0.45      -5.44       9.94
C      -0.56      -5.16      11.18
C      10.09      -1.84      17.27
O      10.76      -0.88      16.77
O      10.37      -2.49      18.33
C       8.83      -2.23      16.55
C       8.87      -2.59      15.19
C       7.70      -2.95      14.51
C       6.46      -2.97      15.19
C       6.42      -2.62      16.57
C       7.59      -2.24      17.23
C       5.27      -3.34      14.52
C       4.25      -3.66      13.93
C       3.07      -4.03      13.26
C       2.65      -3.32      12.11
C       1.47      -3.68      11.45
C       0.70      -4.77      11.90
C       1.12      -5.49      13.04
C       2.29      -5.12      13.72
Br      10.53      -2.65      14.27
Br       7.49      -1.70      19.04
Br       4.75      -2.67      17.45
Br       7.71      -3.41      12.68
Br       3.71      -1.88      11.51
Br       2.87      -6.04      15.25
Br       0.15      -7.02      13.60
Br       0.86      -2.64       9.98
