38

H       5.82       3.58       1.85
H       5.95       5.58       3.32
H       2.02       4.66       4.84
H       1.98       7.04       4.75
H       2.06       8.99       6.24
H       6.19       8.12       7.13
H       6.12       6.20       5.60
H       6.28      10.28       7.44
H       6.33      12.19       9.03
H       2.13      11.73       9.76
H       2.07       9.76       8.25
H       1.64       1.45       3.10
C       4.26      13.22      10.44
C       4.98       3.84       2.50
C       5.05       4.96       3.33
C       3.98       5.30       4.16
C       2.85       4.48       4.16
C       2.77       3.34       3.34
C       3.85       3.03       2.48
C       2.90       7.27       5.28
C       2.95       8.37       6.13
C       4.13       8.72       6.81
C       5.27       7.92       6.59
C       5.23       6.82       5.72
C       4.04       6.48       5.06
C       5.37      10.57       7.97
C       5.41      11.65       8.85
C       4.24      12.08       9.49
C       3.03      11.40       9.25
C       3.01      10.31       8.39
C       4.17       9.87       7.73
C       3.83       1.90       1.51
C       1.58       2.46       3.55
O       3.14      13.65      10.87
O       5.41      13.69      10.77
O       2.70       1.49       1.08
O       4.96       1.44       1.14
O       0.61       2.81       4.21
