20

N       7.76      -0.31       7.87
N       7.86      -1.57       7.35
N       8.80      -0.18       5.95
N      11.77       0.48       3.78
N      12.66       0.44       1.79
N      12.82       1.70       2.30
H       8.39       1.60       7.15
H       8.75      -2.35       5.56
H       9.17      -0.19       3.90
H       9.31       1.40       4.68
H      11.42       0.67       5.82
H      11.23      -0.97       5.16
H      11.73      -1.34       2.54
H      12.20       2.59       4.14
C       8.33       0.53       7.02
C       8.49      -1.49       6.20
C       9.53       0.33       4.79
C      11.04       0.09       4.97
C      12.02      -0.29       2.68
C      12.28       1.72       3.50
