22

H       4.58       3.33      11.36
H       1.87       5.53      12.20
H       0.06       4.99      10.91
H       0.08       3.87      12.31
H      -0.71       3.38      10.77
H       3.47       3.46      15.69
H       5.15       4.06      15.54
H       4.76       2.34      15.12
C       3.30       5.91      14.31
C       3.82       1.95       9.88
C       2.52       3.63      11.29
C       3.66       3.00      10.89
C       2.54       4.67      12.31
C       3.31       4.69      13.43
C       0.13       3.94      11.22
C       4.40       3.38      15.11
O       4.41       6.21      14.85
O       2.20       6.55      14.43
O       5.03       1.65       9.57
O       2.79       1.39       9.38
O       1.32       3.33      10.70
O       4.17       3.68      13.71
