16

C       2.75       2.55      17.49
C       2.76       4.05      17.49
C       2.71       6.87      17.48
C       3.95       4.81      17.50
C       1.51       6.14      17.46
C       3.93       6.19      17.50
C       1.55       4.75      17.47
O       1.59       8.98      17.48
O       3.86       8.92      17.49
O       3.87       1.95      17.49
O       1.60       1.98      17.48
C       2.73       8.36      17.48
H       0.57       6.68      17.45
H       4.87       6.75      17.52
H       0.63       4.17      17.45
F       5.17       4.21      17.53
