20

H       5.25      -0.12       2.95
H       4.03       0.93       4.81
H       8.45       3.69       6.16
H       7.66       4.84       5.04
H       8.88       3.81       3.12
H       9.65       2.64       4.22
C       7.52       2.22       3.83
C       6.97       1.18       3.08
C       5.71       0.71       3.49
C       5.02       1.30       4.56
C       5.57       2.36       5.30
C       6.85       2.78       4.92
C       7.95       3.79       5.19
C       8.71       3.14       3.97
C       4.76       3.07       6.33
C       7.69       0.61       1.91
O       5.07       2.92       7.57
O       3.82       3.80       5.89
O       8.68       1.27       1.46
O       7.27      -0.50       1.41
