33

H       2.59       7.45       3.19
H       1.57      11.60       3.69
H       1.88      11.43       6.14
H       2.40      10.79       8.57
H       2.96       9.67      10.75
H       3.62       5.94       8.76
H       5.14       7.14       5.69
H       4.62       5.54       6.27
H       4.29       6.04       4.59
H       0.92       6.29       6.28
H       1.81       5.53       4.94
H       2.14       5.04       6.62
O       2.21       8.69       1.06
O       1.69      10.84       1.31
O       4.15       5.94      11.16
O       3.48       7.77      12.25
C       2.44       8.30       3.85
C       2.07       9.54       3.29
C       1.85      10.65       4.13
C       2.03      10.55       5.50
C       2.66       9.73       8.60
C       2.97       9.11       9.81
C       3.32       7.76       9.86
C       3.35       6.99       8.68
C       3.04       7.59       7.47
C       2.69       8.96       7.43
C       2.42       9.33       6.05
C       2.61       8.20       5.23
C       2.99       6.98       6.07
C       4.34       6.40       5.63
C       1.89       5.90       5.97
C       1.97       9.69       1.81
C       3.67       7.13      11.18
