16

Br      24.77      12.27      21.81
Br      19.22      15.33      18.91
O      25.84      11.94      18.92
O      24.60      12.41      17.05
O      18.23      15.82      21.81
C      19.19      15.24      22.41
S      22.37      13.65      18.31
S      21.61      13.93      22.41
O      19.33      15.08      23.67
C      24.81      12.38      18.32
C      23.58      12.95      20.53
C      20.41      14.65      20.19
C      23.72      12.92      19.14
C      20.27      14.68      21.58
C      21.61      14.01      19.81
C      22.37      13.58      20.91
