15

C      -2.26      14.27       3.58
C      -6.37      16.83       2.32
N      -3.20      15.43       5.20
H      -5.56      16.70       4.37
O      -6.24      16.56       1.11
H      -3.77      16.10       5.77
C      -3.31      15.13       3.85
H      -1.80      14.81       6.72
H      -1.99      13.81       2.64
C      -4.34      15.62       2.98
C      -2.13      14.78       5.69
C      -5.40      16.38       3.34
N      -1.54      14.05       4.73
O      -7.37      17.55       2.78
H      -4.25      15.34       1.93
