13

C       2.89      12.62      11.14
C       5.23      12.08       8.35
O       3.63      12.84       9.95
C       2.03      13.84      11.41
H       2.24      11.74      11.04
H       3.58      12.46      11.99
H       5.03      11.35      10.36
H       3.68      10.88       9.26
O       5.22      13.26       7.92
O       5.91      11.09       7.90
O       2.05      14.80      10.59
O       1.35      13.74      12.48
C       4.37      11.70       9.54
