30

H      -2.50      -4.83      17.40
H      -0.62      -5.81      16.42
H       3.09      -3.87      15.46
H      -0.62      -1.93      14.51
H      -2.50      -2.91      13.53
H      -6.22      -3.87      15.46
O      -4.51      -5.40      18.69
O      -6.37      -5.46      17.42
O      -6.37      -2.30      13.50
O      -4.51      -2.35      12.23
O       1.39      -0.63      13.94
O       3.25      -1.91      13.90
O       3.25      -5.82      17.04
O       1.40      -7.11      16.97
C      -5.15      -5.14      17.62
C      -4.42      -4.45      16.52
C      -3.02      -4.42      16.53
C      -2.30      -3.87      15.46
C      -0.82      -3.87      15.46
C      -0.10      -4.94      16.01
C       1.30      -4.93      16.04
C       2.03      -6.04      16.72
C       2.00      -3.87      15.46
C       1.30      -2.81      14.88
C       2.03      -1.70      14.20
C      -0.10      -2.80      14.91
C      -3.02      -3.32      14.39
C      -4.42      -3.29      14.40
C      -5.13      -3.87      15.46
C      -5.16      -2.61      13.30
