26

H       6.78       4.54      17.97
H       7.43       5.19      19.48
H       5.84       6.91      19.39
H       5.16       6.21      17.91
H       5.02       6.14      21.64
H       3.71       4.96      21.77
H       6.56       4.37      21.70
H       5.23       3.20      21.75
H       4.90       2.84      18.04
H       4.29       2.25      19.58
H       2.71       3.97      19.63
O       8.11       2.85      20.38
H       3.28       4.52      18.06
O       6.78       1.45      19.19
O       3.54       7.77      20.30
O       2.06       6.48      19.17
C       7.03       2.55      19.78
C       3.18       6.69      19.73
C       6.51       4.85      18.99
C       5.45       5.98      18.95
C       4.19       5.54      19.73
C       4.60       5.23      21.19
C       5.63       4.07      21.20
C       5.95       3.63      19.76
C       4.67       3.15      19.07
C       3.61       4.28      19.08
