12

O       1.48       2.15       1.93
O       2.56       4.13       1.57
O       5.23       3.63      11.50
C       2.73       3.06       3.63
C       2.95       3.01       4.83
C       3.16       2.96       6.16
C       3.34       2.90       7.38
C       3.58       2.85       8.69
C       3.83       2.80       9.89
O       3.96       1.80      11.99
C       2.24       3.10       2.28
C       4.37       2.76      11.22
