53

Si      25.13      12.72       0.04
H      27.30      17.03      -4.81
H      30.02      17.27      -1.44
H      27.31       8.41       4.89
H      29.96       8.10       1.47
N      28.10      15.19      -1.01
N      26.54      15.14      -2.85
N      25.82      14.24      -2.21
N      27.37      14.28      -0.38
H      23.74       8.11      -4.80
N      24.13      10.23      -2.90
N      22.21      10.38      -1.46
N      22.83      11.28      -0.73
N      24.74      11.14      -2.17
N      24.16      15.22       2.99
N      22.26      15.13       1.52
N      22.86      14.21       0.79
N      24.75      14.29       2.27
H      20.28       8.45      -2.21
N      28.07      10.21       1.06
N      27.35      11.13       0.44
N      25.80      11.18       2.28
N      26.52      10.27       2.91
H      23.80      17.37       4.87
H      20.38      17.12       2.22
C      28.37      16.69      -2.86
C      28.08      17.28      -4.10
C      29.48      17.41      -2.38
C      28.07       8.14       4.17
C      28.34       8.71       2.91
C      29.44       7.98       2.41
C      22.79       8.00      -4.29
C      22.27       8.75      -3.22
C      21.01       8.18      -2.96
C      22.86      17.51       4.35
C      22.34      16.77       3.27
C      21.10      17.38       2.98
C      27.64      15.63      -2.21
C      26.23      13.86      -0.98
C      22.90       9.83      -2.50
C      24.09      11.62      -1.08
C      22.95      15.67       2.56
C      24.11      13.85       1.16
C      27.62       9.78       2.27
C      26.22      11.57       1.05
N      29.83      18.35      -3.27
N      28.96      18.27      -4.34
N      29.79       7.04       3.31
N      28.94       7.14       4.40
N      20.80       7.17      -3.82
N      21.91       7.06      -4.64
N      20.90      18.40       3.83
N      21.99      18.48       4.68
