22

C       1.58       4.38       9.51
C      -1.15       7.82       5.82
C       1.70       7.18       5.48
C      -1.27       5.01       9.85
N      -1.15       6.31       7.77
N       1.58       5.89       7.56
H       2.58       4.12       9.16
H       1.66       4.82      10.51
H       1.00       3.44       9.60
H      -2.15       8.08       6.17
H      -0.57       8.75       5.73
H      -1.23       7.37       4.82
H       2.69       7.54       5.77
H       1.86       6.37       4.75
H       1.17       8.00       4.98
H      -2.26       4.65       9.56
H      -0.73       4.20      10.35
H      -1.43       5.82      10.58
C       0.88       5.30       8.56
C      -0.45       6.89       6.77
C       0.94       6.66       6.65
C      -0.50       5.54       8.68
