14

C       5.29       6.40       2.86
C       5.99       4.47      -2.86
C       5.18       5.83       0.32
C       6.10       5.04      -0.32
C       6.07       4.71      -1.67
C       5.21       6.16       1.67
O       6.75       4.10      -5.03
O       4.52       6.77       5.03
O       4.53       4.40      -4.61
O       6.75       6.48       4.61
C       5.75       4.30      -4.28
C       5.52       6.57       4.28
Br       7.57       4.35       0.70
Br       3.71       6.52      -0.70
