46

H       5.56       4.47      10.73
H       6.00       4.29      12.46
H       7.74       5.74      10.39
H       8.17       5.37      12.07
H       8.09       2.89      11.54
H       9.26       3.74      10.50
H       7.68       3.27       9.85
H       0.09       8.86      20.13
H       0.44       7.13      20.09
H      -1.00       8.72      17.88
H      -0.62       7.00      17.79
H      -2.07       6.54      19.81
H      -3.00       7.33      18.52
H      -2.46       8.26      19.93
H       1.12       6.64      11.83
H       3.68       4.34      18.65
H       1.04       6.58      14.31
H       3.97       4.50      16.18
C       3.27       6.44      10.24
C       4.41       6.37      13.87
C       2.42       7.47      16.76
C       4.45       6.31      12.47
C       2.72       6.13      20.34
C       2.19       7.36      18.15
C       3.26       6.41      11.74
C       2.69       6.23      18.84
C       2.04       6.54      12.41
C       3.32       5.21      18.11
C       2.00       6.53      13.80
C       3.49       5.31      16.74
C       3.18       6.47      14.56
C       3.06       6.45      16.04
C       6.15       4.90      11.55
C       7.62       4.99      11.20
C       8.19       3.65      10.75
C       0.28       8.01      19.46
C      -0.87       7.81      18.49
C      -2.17       7.47      19.23
I       6.26       6.46      14.90
I       1.81       9.27      15.84
O       3.58       5.38       9.62
O       1.51       8.37      18.77
O       2.87       7.21      20.98
O       2.92       7.54       9.71
O       2.65       4.96      20.84
O       5.66       6.25      11.80
