23

O      -5.38      10.97       5.27
C      -8.50      13.78       5.53
O      -4.57      11.72       7.24
C      -8.32      14.89       6.36
C      -7.15      15.01       7.12
H      -9.10      15.65       6.42
C      -6.19      14.00       7.11
H      -5.31      14.02       7.75
C      -6.38      12.89       6.25
H      -7.66      11.94       4.79
C      -7.51      12.79       5.45
H      -5.75      15.69       9.44
O      -7.05      16.16       7.87
C      -5.37      11.79       6.26
H      -4.97      16.22       7.92
C      -5.81      16.40       8.60
H      -6.72      18.03       9.70
C      -5.84      17.84       9.08
H      -4.95      18.03       9.68
H      -5.86      18.53       8.23
O      -9.92      12.56       4.07
O     -10.67      14.52       4.89
C      -9.78      13.62       4.79
