44

H       5.87       9.28      10.53
S       7.94      10.18      21.95
Br       5.60       9.51      19.54
N       4.40       7.81      10.27
N       6.11      12.12      16.39
N       5.72      11.64      17.51
N       3.22       7.48      10.93
H       8.03      14.72      20.07
N       9.97      13.65      23.83
H       6.90      14.06      17.94
H       3.68      10.92      16.28
H       2.81       9.68      14.32
H       6.19      11.05      11.99
N       8.84      13.21      24.45
H       2.20       8.25      12.60
H      10.53      13.94      21.80
H       9.06       8.77      20.83
H       7.25      13.16      15.75
H       6.94      12.55      23.79
O       9.28      10.51      22.37
C       4.94       8.86      10.89
O       6.90       9.90      22.90
O       8.69      11.44      14.23
O       7.82      13.06      12.54
O       8.10       8.86      21.03
O       7.68      13.60      14.92
C       8.45      13.17      22.24
C       4.48      10.19      13.03
C       5.63      11.00      12.92
C       6.11      11.70      14.02
C       5.45      11.62      15.27
C       4.22      10.93      15.33
C       3.74      10.24      14.24
C       7.02      13.34      18.75
C       7.67      13.70      19.93
C       6.44      12.07      18.63
C       7.84      12.77      20.97
C       7.37      11.44      20.79
C       6.56      11.13      19.68
C       3.07       8.33      11.96
C       4.15       9.24      11.99
C       9.74      13.66      22.50
C       7.92      12.93      23.52
S       7.73      12.44      13.84
