18

C       3.49      10.25       5.28
N       1.86      10.97       2.15
N       7.28       7.99       3.49
C       2.81      10.72       4.07
H       5.05       9.46       8.66
N       1.49      11.97       2.90
N       6.73       8.45       4.63
C       4.58       9.70       7.70
H       2.90      10.86       8.46
N       2.06      11.84       4.11
N       5.20       9.26       6.61
C       3.41      10.45       7.59
C       5.51       8.91       4.32
N       2.89      10.72       6.40
N       5.30       8.74       3.00
C       4.68       9.49       5.38
N       2.70      10.17       2.85
N       6.43       8.16       2.51
