30

H       0.09       4.50      14.21
H       4.25       4.38      15.74
H       0.36       2.98      18.45
H       0.17       3.00      15.97
H       3.99       3.36      11.39
H       4.13       3.05      13.85
H      -0.46       4.82      10.66
H      -1.16       4.90      12.27
H       4.88       4.11      19.28
H       5.52       4.55      17.72
C       2.03       4.34       9.95
C       2.40       3.56      19.97
C       1.98       4.10      11.40
C       2.39       3.63      18.50
C       0.82       4.37      12.19
C       0.94       4.22      13.60
C       3.54       3.99      17.73
C       3.40       4.05      16.33
C       1.20       3.30      17.84
C       1.09       3.33      16.46
C       3.15       3.62      12.03
C       3.23       3.46      13.40
C       2.12       3.80      14.21
C       2.21       3.73      15.68
N      -0.35       4.79      11.67
N       4.72       4.34      18.31
O       0.93       4.64       9.35
O       1.29       3.69      20.58
O       3.53       3.36      20.56
O       3.16       4.26       9.36
