30

O       2.33      14.51       5.07
O       4.32       7.91      -5.07
H       1.52      11.32      -1.68
H       5.13      11.09       1.68
O       4.61      14.50       5.06
O       2.04       7.92      -5.06
H       0.41      12.79      -0.41
H       0.39      12.55       2.34
H      -0.51      13.75       1.38
H       1.09      14.16       2.06
H       6.24       9.63       0.41
H       6.26       9.87      -2.34
H       5.56       8.26      -2.06
H       7.16       8.67      -1.38
C       3.47      14.19       4.58
C       3.18       8.23      -4.58
C       2.31      11.29      -0.93
C       4.34      11.13       0.92
C       3.41      10.44      -1.18
C       3.24      11.98       1.18
C       4.47      10.35      -0.23
C       2.18      12.07       0.23
C       3.35       9.66      -2.36
C       3.30      12.75       2.36
C       3.43      13.41       3.38
C       3.22       9.01      -3.38
C       0.49      13.36       1.60
C       6.16       9.06      -1.60
N       1.08      12.89       0.35
N       5.57       9.52      -0.35
