49

O       5.67      18.96      22.65
H       7.07      14.48      20.39
H       7.71      13.10      18.74
O       6.06      15.69      15.40
H       8.50      15.63      16.29
H       9.20      14.33      17.27
H       8.91      15.54      19.28
H       4.94      14.71      16.83
H       4.89      16.55      18.18
H       8.70      16.95      18.24
H       4.73      12.78      18.04
H       6.05      11.67      17.66
H       5.59      11.95      19.35
H       4.24      14.73      19.23
H       4.76      13.74      20.60
H       4.82      15.51      20.72
H       5.54      18.09      16.39
H       6.33      18.56      17.91
H       7.25      17.74      16.62
H       5.08      16.48      13.82
H       4.05      16.28      15.25
H       5.15      14.00      13.51
H       4.12      13.77      14.91
H       2.27      15.10      13.78
H       2.75      13.67      12.85
H       3.31      15.29      12.35
C       7.22      11.62      13.95
C       6.75      13.56      18.45
C       8.36      15.05      17.21
C       8.30      15.95      18.46
C       6.77      17.82      20.96
C       7.04      14.25      17.08
C       6.42      14.66      19.52
C       6.84      16.06      18.96
C       5.90      16.44      17.77
C       5.89      15.25      16.75
C       6.77      17.04      20.03
C       7.14      13.28      16.01
C       7.22      12.48      15.10
C       6.79      18.71      22.09
C       5.72      12.43      18.37
C       4.98      14.66      20.04
C       6.28      17.78      17.14
C       4.84      15.80      14.64
C       4.34      14.47      14.09
C       3.10      14.65      13.22
O       6.09      11.16      13.58
O       8.34      11.42      13.37
O       7.93      19.16      22.43
