18

H      26.24      10.17      26.04
N      23.81       8.71      29.65
C      24.07       8.84      26.69
C      27.89      11.29      30.27
H      23.11       8.28      29.05
H      23.70       8.74      30.65
C      25.02       9.44      27.64
C      26.90      10.66      29.34
C      24.85       9.36      29.06
C      27.07      10.74      27.95
C      25.81       9.99      29.88
O      24.28       9.00      25.44
C      26.14      10.13      27.13
O      27.68      11.17      31.52
O      28.88      11.90      29.73
O      23.06       8.18      27.17
H      27.93      11.27      27.54
H      25.70       9.94      30.97
