35

O       4.58       4.11       5.94
H      10.75       5.72       2.05
O       5.86       3.38       7.66
H       5.23       6.07       2.38
H       6.34       4.80       1.76
H       3.95       4.23       1.23
H       4.64       3.03       2.36
O       8.05       0.42       1.08
H       3.54       4.30       2.97
O       9.49       2.18       1.13
O       8.63       4.30       2.61
O       6.48       1.46       2.99
O       6.02       4.91       3.83
H       9.91       4.67       4.20
H       8.48       5.73       4.14
H       9.33       6.80       2.04
H      10.54       6.94       3.34
H       7.63       0.08       4.06
H       6.63      -0.60       2.75
H       4.55       0.05       4.06
H       5.57      -1.10       4.96
H       5.59       0.63       5.39
C       5.52      -0.08       4.56
C       5.52       5.01       2.47
C       4.34       4.08       2.25
C       5.68       3.66       6.40
C       7.77       3.39       3.14
C       7.60       2.15       2.60
C       6.81       3.87       4.18
C       6.78       3.40       5.46
C       8.44       1.55       1.53
C       9.25       5.24       3.53
C      10.01       6.23       2.69
C       6.65       0.13       3.57
Br       8.21       2.32       6.10
