40

H       4.81       7.65       5.42
H       9.11       7.61      -5.42
H       4.80       7.55      -5.42
H       9.11       7.70       5.42
C       6.96       7.70       7.10
C       6.95       7.55      -7.10
C       5.75       7.66       4.89
C       8.16       7.59      -4.89
C       5.75       7.56      -4.89
C       8.16       7.69       4.89
C       5.77       7.62       3.50
C       8.14       7.63      -3.50
C       5.77       7.55      -3.50
C       8.14       7.70       3.50
C       6.96       7.66       2.75
C       6.96       7.60      -2.75
C       6.96       7.68       5.59
C       6.96       7.57      -5.59
C       6.96       7.61      -1.27
C       6.96       7.64       1.27
N       7.60       6.62       0.67
N       6.32       8.63      -0.67
N       7.60       6.60      -0.65
N       6.32       8.65       0.65
N       4.46       7.48       2.82
N       9.45       7.77      -2.82
N       4.46       7.40      -2.81
N       9.45       7.85       2.81
O       5.82       7.70       7.67
O       8.09       7.55      -7.67
O       5.81       7.54      -7.66
O       8.10       7.71       7.66
O       4.43       6.77       1.81
O       3.50       8.06       3.34
O       9.49       8.48      -1.81
O      10.41       7.19      -3.34
O       4.44       6.71      -1.79
O       3.49       7.95      -3.34
O       9.47       8.54       1.79
O      10.42       7.30       3.34
