16

H       2.81       1.36       7.47
H       7.08      -1.16       7.03
H       2.81      -1.15       7.47
H       7.08       1.36       7.03
C       4.95       3.00       7.24
C       3.74       0.80       7.37
C       6.15      -0.59       7.13
C       3.74      -0.59       7.37
C       6.15       0.80       7.12
C       4.95      -1.30       7.25
C       4.95       1.50       7.24
C       4.95      -2.79       7.25
O       6.08       3.58       7.24
O       3.81      -3.38       7.26
O       6.08      -3.38       7.25
O       3.81       3.58       7.25
