30

C       6.72       7.63       7.63
C       9.18       7.47       7.53
C       9.16       7.86       6.22
C       7.93       8.18       5.53
C       6.71       8.04       6.27
C       7.88       8.62       4.20
H       4.51       8.99       3.79
H       4.61       6.98      10.26
C       6.76       6.79      10.31
H       3.30       8.43       5.88
H       3.33       7.73       8.25
H       8.80       8.76       3.63
H      10.12       7.23       8.02
H       8.89       6.68      10.11
Br      10.82       7.99       5.29
O       7.92       5.96      12.19
O       5.66       6.07      12.29
O       7.73       9.76       1.66
O       5.47       9.79       1.75
C       6.60       9.51       2.23
C       5.54       7.09       9.69
C       5.49       7.51       8.36
C       5.46       8.33       5.63
C       6.79       6.25      11.70
C       4.24       8.20       6.38
C       4.26       7.81       7.69
C       5.45       8.75       4.30
C       6.65       8.91       3.60
C       7.96       6.93       9.61
C       7.96       7.34       8.27
