10

C       9.12       4.66      12.46
H      10.99       7.00      14.73
C      10.51       4.66      12.47
C       9.04       6.31      14.05
C      10.43       6.33      14.08
H      11.11       4.00      11.85
N       8.39       5.46      13.23
N      11.14       5.51      13.29
H       8.42       6.95      14.67
F       8.47       3.83      11.65
