16

S      21.96      13.41      18.31
O      25.37      11.58      18.88
S      21.21      13.58      22.41
O      24.24      12.26      17.01
C      24.39      12.12      18.28
C      23.16      12.65      20.50
C      19.99      14.35      20.22
C      18.76      14.89      22.40
C      19.87      14.34      21.60
C      21.19      13.73      19.81
C      21.96      13.26      20.90
C      23.31      12.65      19.12
Br      24.36      11.94      21.76
O      17.80      15.44      21.76
O      18.87      14.76      23.67
H      19.23      14.78      19.57
