26

O       1.35      -3.48      12.49
O       8.10      -2.15       3.15
O       6.95      -0.18       3.16
O       2.48      -5.45      12.48
H       1.96      -1.94      10.66
H       7.51      -3.67       5.00
H       5.34       0.04       5.02
H       4.17      -0.65       7.04
H       4.09      -5.67      10.62
H       5.33      -4.94       8.64
F       3.09      -0.95       8.66
F       6.47      -4.61       7.07
C       2.20      -4.30      12.00
C       7.23      -1.33       3.63
C       2.94      -3.87      10.78
C       6.50      -1.76       4.86
C       2.70      -2.61      10.22
C       3.41      -2.21       9.11
C       6.77      -3.00       5.44
C       6.11      -3.37       6.59
C       5.56      -0.93       5.46
C       4.90      -1.33       6.61
C       3.90      -4.69      10.19
C       4.59      -4.26       9.07
C       4.39      -3.00       8.46
C       5.13      -2.58       7.24
