26

O      10.70      13.79       1.55
O      11.80      15.78       1.62
O      16.63      12.89       5.51
O      15.41      10.98       5.57
H      14.12      15.57       2.55
H      14.37      14.31       1.35
H      16.00      13.34       2.70
H      15.76      14.59       3.91
H      14.62      11.19       2.81
H      13.44      10.98       4.10
H      11.79      11.96       2.77
H      12.96      12.16       1.47
H      14.05      14.28       5.75
H      13.09      12.80       5.82
H      11.46      13.79       4.48
H      12.43      15.27       4.39
C      11.67      14.54       1.89
C      12.76      13.90       2.74
C      14.15      14.48       2.41
C      15.23      13.84       3.31
C      14.59      12.80       4.25
C      13.88      11.72       3.42
C      12.79      12.37       2.54
C      13.54      13.52       5.13
C      12.46      14.18       4.24
C      15.63      12.17       5.18
