28

H       1.63       3.16      20.39
H      -0.55      -0.70      22.48
H      -0.90       2.05      19.62
H       1.98       0.41      23.25
C       0.89       5.04      25.29
C       0.20      -2.58      17.57
C      -0.25       1.70      20.42
C       1.34       0.76      22.45
C       1.13       2.31      20.84
C      -0.04       0.15      22.03
C       0.87       4.07      24.23
C       0.21      -1.61      18.64
C      -0.66       1.57      21.91
C       1.75       0.89      20.96
C       0.73       2.22      22.37
C       0.36       0.24      20.50
C       0.85       3.23      23.35
C       0.24      -0.76      19.51
N       3.00       0.46      20.35
N      -1.92       2.00      22.52
O      -0.25       5.41      25.72
O       1.34      -2.95      17.15
O       2.02       5.41      25.72
O      -0.94      -2.95      17.15
O       3.73      -0.31      21.01
O       3.23       0.87      19.21
O      -2.64       2.77      21.86
O      -2.15       1.59      23.66
