30

N       7.86      16.02      13.81
N       2.33      11.33      17.99
H       6.21      14.04      13.96
H       3.47      13.61      17.52
H       3.29      10.73      13.47
H       4.34      12.97      13.33
H       4.90      17.78      16.95
H       3.48      15.75      16.86
O       8.01      18.50      14.67
O       1.32       9.35      16.55
O       6.85      19.15      16.51
O       2.48       8.72      14.70
C       7.11      18.34      15.57
C       2.15       9.55      15.60
O       8.92      15.73      14.36
O       7.70      16.23      12.60
O       3.02      10.51      18.62
O       1.31      11.89      18.40
C       6.31      17.09      15.49
C       2.79      10.90      15.55
C       6.64      16.02      14.65
C       5.88      14.86      14.59
C       2.83      11.75      16.66
C       3.42      13.00      16.61
C       3.34      11.37      14.35
C       3.93      12.63      14.28
C       5.16      16.96      16.28
C       4.38      15.81      16.24
C       4.74      14.73      15.40
C       4.00      13.45      15.42
