50

O       2.21      12.51       1.04
H      -0.28      10.22       1.21
O       2.30       7.58       9.79
H       2.68       6.48       4.52
H      -1.14       6.46       2.74
H       2.11      14.28       2.86
H       1.67      10.48      10.74
H       4.05      10.15       4.96
H       5.10      11.95       6.60
O      -0.23       5.25       5.38
O       0.43       6.10       3.13
O       2.01       5.95       5.02
H      -0.79       5.47       7.10
O      -2.62       9.21       3.55
C       1.10      12.26       1.59
O      -1.98       8.71       1.21
O      -1.96       6.99       2.98
O       2.30      12.88       5.77
O       3.84      12.67       3.79
C      -0.07       9.07       3.00
O       1.68      13.80       3.64
C       1.07      11.15       2.60
C       1.19       8.15       9.55
C       2.26      10.25       8.89
O       2.47      10.54      10.18
C       3.15      10.84       7.97
O       4.12      10.69       5.80
C       3.06      10.47       6.62
O       3.81      12.97       9.38
C       1.87       9.88       6.14
O       5.45      11.10       9.24
C       1.06       9.12       7.09
O       5.01      12.62       7.33
C       1.42      10.03       4.76
O      -1.77       8.39       8.22
C       0.59       8.96       4.25
O      -1.07       6.09       7.82
C       0.30       7.88       5.13
O      -2.22       7.31       6.03
C       0.21       8.12       6.51
C       1.63      11.15       3.88
C       0.23      10.11       2.16
C       1.34       9.25       8.49
S       0.51       6.20       4.58
S      -1.76       8.51       2.61
S       2.50      12.69       4.37
S       4.43      11.93       8.64
S      -1.37       7.50       7.18
O      -0.03      12.78       1.33
O       0.10       7.88      10.13
