16

C      21.24      13.75      19.82
C      22.03      13.27      20.89
O      25.41      11.59      18.93
O      24.34      12.29      17.03
S      21.99      13.43      18.30
S      21.27      13.59      22.41
C      24.45      12.14      18.30
H      23.99      12.22      21.12
C      23.23      12.66      20.48
C      20.04      14.36      20.23
C      23.34      12.68      19.10
C      19.92      14.35      21.61
C      18.82      14.89      22.41
O      17.86      15.44      21.77
O      18.93      14.77      23.68
H      19.28      14.79      19.59
