53

C      17.80       1.46       7.37
C      17.20      -1.47       7.37
C      20.66       0.47       3.54
C      14.33      -0.47       3.54
C      19.24       2.68       8.91
C      15.75      -2.68       8.91
Si      17.50      -0.00       6.22
C      19.16      -1.64       4.58
C      15.83       1.64       4.58
C      16.70       2.19       7.87
C      18.29      -2.20       7.87
H      20.23       2.88       9.33
H      14.77      -2.89       9.33
H      21.25       1.28       3.12
H      13.74      -1.28       3.11
H      18.57      -2.47       4.97
H      16.42       2.47       4.97
O      17.25       4.92      11.00
O      17.74      -4.93      11.00
C      14.91       1.88       3.57
C      18.13      -3.14       8.88
H      19.30      -2.01       7.48
C      20.09      -1.88       3.57
C      16.86       3.14       8.88
H      15.70       2.01       7.48
O      22.50      -0.12       1.48
C      19.73       0.71       4.54
C      15.27      -0.71       4.54
C      19.07       1.73       7.90
C      15.92      -1.73       7.90
H      20.21      -2.89       3.17
H      14.78       2.89       3.17
H      16.00       3.67       9.28
H      18.99      -3.68       9.27
H      19.59       1.73       4.90
H      15.41      -1.73       4.90
H      19.94       1.18       7.54
H      15.05      -1.18       7.54
O      12.50       0.12       1.48
O      19.47       4.59      10.97
O      15.52      -4.59      10.97
C      14.16       0.83       3.03
C      21.80      -1.08       1.92
C      13.20       1.08       1.91
C      18.31       4.36      10.53
C      16.69      -4.36      10.53
C      20.84      -0.83       3.03
O      21.87      -2.27       1.45
C      18.14       3.38       9.41
C      16.86      -3.39       9.41
O      13.12       2.27       1.44
C      18.95      -0.34       5.08
C      16.04       0.34       5.08
