40

H       0.87       2.15       1.59
H       0.85      -0.32       1.56
H       3.15      -0.36       5.21
H       3.15      -1.15       1.08
H       0.87      -5.54       0.72
H       0.85      -4.33       2.87
H       3.15      -4.34       3.83
H       0.87      -2.45       7.81
H       0.84      -1.20       5.69
C       2.04      -4.82       8.35
C       2.04      -4.82      -1.60
C       2.04       3.80       3.37
C       1.39       1.59       2.38
C       1.36       0.20       2.37
C       2.01      -0.53       3.38
C       2.65       0.18       4.41
C       2.63       1.57       4.43
C       2.03       2.30       3.40
C       2.65      -2.12       1.02
C       2.63      -2.80      -0.20
C       2.03      -4.05      -0.32
C       1.39      -4.58       0.81
C       1.36      -3.90       2.01
C       2.01      -2.66       2.14
C       2.65      -3.90       4.70
C       2.63      -4.62       5.89
C       2.03      -4.09       7.04
C       1.39      -2.85       6.94
C       1.36      -2.15       5.74
C       2.01      -2.66       4.60
N       2.00      -1.95       3.37
Cl       3.36       2.38       5.76
Cl       3.36      -2.04      -1.57
Cl       3.36      -6.18       5.93
O       3.01      -4.58       9.15
O       1.07      -5.60       8.58
O       1.07      -4.63      -2.39
O       3.01      -5.63      -1.79
O       1.07       4.39       3.93
O       3.01       4.37       2.76
