16

S       4.22       5.90      16.89
S       7.23       6.51      19.71
H       7.76       6.69      16.46
H       3.68       5.74      20.16
C       6.77       6.46      16.85
C       4.67       5.96      19.76
C       5.69       6.24      16.02
C       5.76       6.19      20.58
C       5.04       6.05      18.40
C       6.40       6.35      18.21
O       4.58       6.11      13.94
C       5.70       6.29      14.55
O       6.83       6.52      14.00
C       5.80       6.22      22.06
O       6.95       6.41      22.58
O       4.70       6.06      22.68
