34

H      13.57       7.99      10.07
H      12.21       6.85      10.07
H      11.09       5.77      12.55
H      12.50       4.54      11.13
H      14.26       6.48      14.34
H      14.40       8.18      13.88
H      15.39       7.65      11.82
H      15.66       6.06      12.53
H      12.11       5.19      13.86
H      13.73       4.37      12.38
H      12.84       9.02      12.05
H      16.27       4.29      11.14
H       9.65       7.98      13.56
H      13.90       6.25       8.09
H      13.08       7.59      16.18
H      11.30       8.22      11.74
C      14.73       5.55      10.08
C      11.75       7.69      14.36
C      12.37       8.04      11.91
C      13.00       7.29      10.70
C      12.13       5.76      12.91
C      14.08       7.19      13.52
C      12.57       7.22      13.20
C      13.94       6.17      11.19
C      13.07       5.09      11.89
C      14.88       6.78      12.26
C      15.79       4.66      10.23
C      10.36       7.91      14.39
C      14.60       5.67       8.68
C      12.10       7.71      15.72
N      16.28       4.28       9.03
N       9.92       8.01      15.66
N      15.54       4.92       8.07
N      11.00       7.89      16.49
