21

H      23.57      15.02       3.84
H      22.05      13.81       5.41
H      22.32      12.41       0.65
H      19.02      11.85       1.02
C      23.99      14.48       1.23
C      23.03      13.80       2.15
C      22.96      14.19       3.49
C      22.12      13.51       4.37
C      21.33      12.44       3.93
C      20.38      11.80       4.89
C      21.41      12.06       2.57
C      22.25      12.73       1.69
C      19.52      10.95       1.35
N      20.66      10.95       2.07
N      19.14       9.70       1.17
N      20.07       8.93       1.80
N      20.99       9.66       2.36
O      24.78      15.33       1.78
O      23.96      14.17      -0.01
O      19.34      11.26       4.39
O      20.68      11.86       6.13
