14

C       3.81       5.18       4.28
H       3.34       5.43      -0.38
H       6.36       5.57       0.28
C       5.74       5.95      -4.38
C       5.70       5.83      -2.94
C       5.46       5.56      -0.34
C       4.24       5.44       0.25
C       4.07       5.34       1.64
C       5.61       5.71      -1.73
C       3.91       5.26       2.84
O       2.67       5.38       4.81
O       4.89       4.89       4.90
O       4.66       5.64      -4.99
O       6.84       6.35      -4.90
