16

S       8.26      12.56       1.17
S       8.19      16.02      -1.20
C       6.97      14.82       1.15
C       9.49      13.74      -1.18
C       7.06      13.63       1.86
C       9.36      14.93      -1.88
H      10.19      12.96      -1.48
C       8.62      13.71      -0.07
C       7.85      14.88       0.05
F       6.14      15.83       1.47
O       6.60      12.02       3.49
O       9.79      16.48      -3.57
O       5.45      14.00       3.52
C       6.31      13.19       3.03
O      10.94      14.51      -3.56
C      10.08      15.33      -3.09
