16

O      19.68      21.85      15.07
C      17.97      22.99      16.21
C      15.69      24.60      16.21
O      14.03      25.84      17.35
C      16.25      24.19      15.00
C      17.39      23.39      17.42
H      15.80      24.52      14.06
C      19.22      22.16      16.21
H      17.85      23.07      18.36
C      17.39      23.39      15.00
O      14.03      25.84      15.07
C      16.25      24.19      17.42
C      14.49      25.51      16.21
H      17.85      23.07      14.06
H      15.80      24.52      18.36
O      19.68      21.85      17.35
