30

N      11.67       8.53       6.15
N      11.68       9.21       3.56
H      11.70       9.44      10.90
Cl      12.36      10.65       8.41
H       8.16      11.47       6.80
H       7.97      11.85       4.34
H       7.71       9.24       7.94
H       7.55       8.50      10.33
O       8.45      11.43       2.03
O      10.61      10.90       1.66
O      10.72       7.95      12.58
H      11.57       8.21       7.11
O       8.46       7.88      12.53
H      11.76       7.75       5.50
H      12.57       9.06       4.02
H      11.75       9.63       2.63
C       9.62       8.91      10.74
C      10.82       9.42      10.25
C      10.89       9.89       8.94
C       9.79       9.78       8.06
C       8.57       9.32       8.61
C       9.61       8.22      12.05
C       8.48       8.90       9.93
C      10.73       9.48       5.75
C      10.72       9.81       4.36
C       8.75      11.20       4.75
C       8.85      10.98       6.10
C       9.83      10.11       6.63
C       9.69      10.64       3.86
C       9.57      11.00       2.44
