28

H       1.89      12.47      13.13
H       1.93      12.38      10.64
Br       2.03      17.50      13.34
H       2.04      12.35       6.24
Br       2.03      11.56       3.43
H       1.93      16.67       6.14
H       1.89      16.59       3.65
H       2.04      16.70      10.54
O       2.99      13.89       1.46
O       1.11      15.14       1.47
O       2.99      15.17      15.31
O       1.10      13.91      15.30
C       2.03      14.48       2.05
C       2.03      14.57      14.73
C       2.00      14.61      13.24
C       1.94      13.39      12.54
C       1.96      13.34      11.16
C       2.00      14.54      10.41
C       2.03      15.77      11.10
C       2.05      15.79      12.49
C       2.01      14.52       9.00
C       2.01      14.53       7.78
C       2.00      14.51       6.36
C       2.03      13.28       5.67
C       2.05      13.26       4.28
C       2.00      14.45       3.54
C       1.94      15.67       4.23
C       1.96      15.71       5.62
