24

O       7.87      13.09       0.37
O       8.19      14.32      -1.52
O       7.40      10.89      -1.00
O       8.14       9.47      -2.73
O      10.86      10.19      -3.61
O       9.97      11.76      -2.09
O       9.11       9.03      -6.37
O       9.83       7.84      -4.57
H       6.69      12.32      -2.34
H       6.95       8.92      -1.19
H       6.17      10.02      -2.42
H       7.59      10.76      -4.28
H       9.79      11.03      -5.19
H      11.94      11.37      -2.37
H      11.13      12.24      -3.74
H       8.75      12.71      -3.49
C       7.92      13.26      -0.89
C       7.61      12.06      -1.77
C       7.09       9.79      -1.84
C       8.44      10.56      -3.60
C       9.69      10.23      -4.43
C      11.03      11.44      -2.97
C       8.73      11.85      -2.80
C       9.54       8.91      -5.17
