30

C       2.59      37.15      23.38
C       2.62      37.05      24.76
C       1.97      36.28      21.15
C       1.97      35.32      20.19
C       2.59      34.45      17.97
C       1.98      35.46      18.74
C       1.37      36.56      18.09
C       1.37      36.63      16.71
C       2.00      35.64      15.94
C       2.62      34.56      16.58
O       2.95      35.11      13.84
O       1.07      36.38      13.89
O       2.95      36.49      27.50
H       0.86      34.16      25.14
O       1.07      35.22      27.45
H       3.05      38.00      22.88
H       3.13      37.80      25.36
H       3.05      33.60      18.46
H       0.88      37.33      18.68
H       0.86      37.45      16.20
H       3.13      33.81      15.98
F       2.05      37.58      20.71
F       2.06      34.02      20.63
C       2.01      35.72      14.46
C       2.01      35.89      26.88
H       0.88      34.28      22.66
C       2.00      35.97      25.40
C       1.37      34.98      24.64
C       1.37      35.05      23.25
C       1.98      36.15      22.60
