26

C      11.49      23.08      18.62
C      12.51      24.24      18.60
C      13.39      24.20      19.88
C      14.12      22.84      19.93
C      13.09      21.68      19.96
C      11.65      22.25      19.92
C      11.44      23.17      21.13
C      12.47      24.32      21.11
O      10.81      20.20      19.02
O       9.65      21.20      20.70
O      15.31      25.21      18.91
O      14.27      26.31      20.61
H      10.46      23.46      18.57
H      11.63      22.41      17.76
H      13.16      24.17      17.72
H      11.99      25.21      18.55
H      14.78      22.76      19.05
H      14.76      22.81      20.82
H      13.23      21.00      19.11
H      13.21      21.08      20.87
H      10.42      23.56      21.12
H      11.53      22.58      22.05
H      13.09      24.32      22.02
H      11.97      25.30      21.09
C      10.63      21.12      19.88
C      14.40      25.33      19.80
