28

N      -1.05      10.39       7.82
N      -1.64      12.72       7.02
N      -2.10      13.91       6.63
N      -3.68      12.91       7.93
N      -5.72      17.50       6.68
H       0.35       8.87       7.76
H      -1.11       7.22       8.96
H      -3.39       7.93       9.71
H      -2.99      15.97       5.38
H      -4.43      18.00       5.13
H      -6.89      16.80       8.24
H      -5.59      14.70       8.57
C      -0.65       9.13       8.09
C      -1.47       8.23       8.77
C      -2.73       8.63       9.19
C      -3.18       9.93       8.92
C      -2.31      10.78       8.22
C      -2.60      12.12       7.78
H      -4.89      11.26       8.85
H      -5.26       9.55       9.27
H      -4.51      10.62      10.46
C      -3.33      14.00       7.20
C      -4.17      15.17       7.01
C      -3.86      16.12       6.02
C      -4.54      10.37       9.39
C      -5.30      15.41       7.81
C      -4.66      17.25       5.89
C      -6.03      16.58       7.61
