13

N      12.96      20.74      14.66
C      11.16      21.75      15.86
C      12.37      21.08      15.83
O       8.76      23.17      15.80
O       8.76      23.17      13.52
H      10.71      22.03      12.50
H      12.92      20.81      12.59
H      10.71      22.03      16.82
H      12.92      20.81      16.73
C       9.25      22.86      14.66
C      10.53      22.10      14.66
C      11.16      21.75      13.45
C      12.37      21.08      13.49
