20

H       1.49       2.18       5.84
H       0.78       1.48       7.26
H      -4.37       5.07       4.11
H      -3.67       5.76       2.69
C      -1.80       1.65       8.13
C      -1.08       5.60       1.82
C      -0.52       2.54       6.12
C      -2.36       4.71       3.83
C      -1.68       2.42       6.92
C      -1.20       4.83       3.04
C      -2.09       3.87       4.96
C      -0.79       3.38       5.00
S      -3.04       3.32       6.29
S       0.16       3.93       3.67
N       0.65       1.91       6.35
N      -3.54       5.34       3.60
O      -2.97       1.31       8.54
O      -0.70       1.34       8.71
O      -2.19       5.91       1.24
O       0.08       5.94       1.41
