28

H       3.80       7.20       4.85
H       3.64       7.38       2.37
H       7.40       5.28       2.02
H       3.38       7.51      -2.03
H       6.98       5.58      -4.85
H       7.14       5.40      -2.37
C       5.07       6.65      -6.33
C       5.71       6.13       6.33
C       5.69       6.20       4.84
C       4.59       6.80       4.21
C       4.50       6.90       2.83
C       5.51       6.35       2.02
C       6.62       5.73       2.64
C       6.71       5.66       4.03
C       5.43       6.39       0.61
C       5.35       6.40      -0.61
C       5.27       6.44      -2.02
C       4.16       7.06      -2.64
C       4.07       7.12      -4.03
C       5.08       6.58      -4.84
C       6.18       5.98      -4.21
C       6.28       5.88      -2.83
Cl       8.08       4.80       4.66
Cl       2.70       7.97      -4.67
O       3.96       6.48      -6.93
O       4.59       5.90       6.89
O       6.81       6.30       6.93
O       6.19       6.87      -6.89
