36

C       3.66      18.89       9.48
C       2.94      22.66      13.48
N       5.17      18.96      12.44
N       1.51      22.69      10.56
N       1.97      19.63      13.64
N       4.57      22.12       9.36
N       5.66      21.92      12.43
N       0.94      19.69      10.52
O       1.91      24.84      15.89
O       4.71      16.72       7.06
H       5.73      19.42      13.16
H       4.87      18.04      12.74
O       4.18      24.86      15.83
O       2.44      16.72       7.10
H       1.08      22.41       9.68
H       1.85      23.65      10.49
H       1.99      18.61      13.64
H       2.33      19.96      14.54
H       4.00      22.15       8.51
H       5.47      21.69       9.13
H       5.45      22.73      13.01
H       6.39      22.16      11.76
H       0.23      19.43      11.21
H       1.13      18.89       9.91
C       3.04      24.46      15.43
C       3.59      17.11       7.51
C       2.69      20.17      12.54
C       3.93      21.43      10.40
C       4.15      19.82      11.97
C       2.49      21.76      10.98
C       3.61      18.08       8.56
C       3.01      23.49      14.37
C       2.13      20.24      11.07
C       4.49      21.35      11.87
C       3.54      19.84      10.50
C       3.07      21.71      12.46
