26

H       6.70       6.58       3.39
H       2.92       6.51      -3.43
H       6.71       4.42      -3.38
H       2.91       4.49       3.42
C       5.83       6.10       1.48
C       3.77       6.07      -1.50
C       5.84       4.90      -1.47
C       3.76       4.94       1.49
C       5.87       6.11       2.86
C       3.75       6.05      -2.88
C       5.88       4.89      -2.86
C       3.74       4.95       2.88
C       4.80       5.54       3.57
C       4.82       5.46      -3.56
C       4.80       5.51       0.74
C       4.80       5.49      -0.74
C       4.80       5.55       5.06
C       4.84       5.46      -5.06
O       5.91       5.81       5.65
O       3.74       5.71      -5.66
O       5.95       5.20      -5.63
O       3.70       5.29       5.64
F       6.84       6.70       0.80
F       2.76       6.69      -0.83
F       6.84       4.30      -0.78
F       2.75       4.32       0.83
