26

C      15.96      13.66      16.55
C      15.96      16.08      16.55
C      17.35      13.66      16.45
C      17.35      16.08      16.45
C      18.06      14.87      16.39
C      19.54      14.87      16.25
O       8.85      14.87      17.48
O       8.93      14.87      15.20
O      20.12      13.73      16.19
O      20.12      16.01      16.19
H      11.01      14.87      18.57
H      11.20      14.87      14.29
H      13.70      14.87      14.40
H      13.51      14.87      18.70
H      15.41      12.72      16.60
C       9.47      14.87      16.36
H      15.41      17.02      16.60
C      10.96      14.87      16.42
H      17.91      12.73      16.42
C      11.61      14.87      17.67
H      17.91      17.02      16.42
C      11.72      14.87      15.25
C      13.11      14.87      15.31
C      13.01      14.87      17.73
C      13.77      14.87      16.55
C      15.26      14.87      16.57
