35

H       1.35      19.12      14.95
H       4.99      15.34      19.96
H       1.45      14.05      17.89
H      -2.18      20.29      17.11
H       2.38      18.34      17.06
H      -1.16      19.54      19.22
H       0.42      16.26      18.27
H       3.97      17.54      20.37
O      -2.26      20.79      14.76
O       3.31      12.39      17.94
O      -0.51      20.00      13.54
O       5.06      13.05      19.23
F      -0.61      17.36      20.40
F       2.95      19.40      21.21
F      -0.14      19.33      21.25
F       3.41      19.65      19.08
F       1.77      20.77      19.98
F       1.04      17.58      21.82
C      -1.13      20.21      14.64
C       3.94      13.24      18.67
C       3.29      14.56      18.89
C      -0.49      19.74      15.90
C       0.80      19.19      15.89
C       3.99      15.55      19.59
C       2.00      14.83      18.42
C      -1.18      19.86      17.11
C       2.12      17.07      19.34
C       1.38      18.77      17.08
C      -0.60      19.43      18.30
C       1.40      18.41      19.58
C       1.42      16.07      18.64
C       3.41      16.80      19.81
C       2.39      19.56      19.98
C       0.42      18.18      20.77
C       0.69      18.87      18.30
