10

C       0.73       6.16       6.75
C      -0.66       4.69       8.53
C       0.73       4.71       8.55
C      -0.66       6.13       6.73
H       1.32       6.75       6.05
H      -1.25       4.12       9.25
H       1.33       4.14       9.26
H      -1.26       6.69       6.00
N      -1.34       5.40       7.62
N       1.41       5.45       7.66
