20

C      12.69      15.38       3.07
C      14.64      14.17       4.85
C      13.85      16.05       3.46
C      13.45      13.49       4.45
C      14.77      15.46       4.32
C      12.51      14.08       3.60
C      14.65      17.33       3.33
C      15.69      16.67       4.32
H      11.61      13.53       3.33
H      15.03      17.55       2.32
H      14.15      18.23       3.72
H      15.80      17.16       5.29
H      16.69      16.49       3.90
Br      12.99      11.76       5.10
C      15.71      13.64       5.73
C      11.67      15.97       2.16
O      15.83      12.38       5.87
O      16.47      14.52       6.26
O      10.64      15.26       1.90
O      11.91      17.15       1.73
