12

O      -0.82       3.38       4.66
O      -1.58       4.32       2.73
C      -0.68       3.88       3.47
C       0.75       3.90       3.00
C       1.76       3.04       3.42
C       3.26       4.04       2.01
C       1.09       4.82       2.01
H       1.58       2.26       4.16
H       4.28       4.14       1.64
H       0.35       5.50       1.61
N       2.33       4.89       1.51
N       3.02       3.11       2.93
