14

C      11.65       6.39      13.25
C      12.69       7.01      12.36
C      13.44       7.45      10.25
C      14.53       8.13      10.79
C      13.78       7.70      12.90
C      15.58       8.76       9.91
H      13.31       7.35       9.17
H      13.91       7.80      13.98
O      10.70       7.16      13.61
O      11.83       5.17      13.56
O      16.57       8.03       9.61
O      15.34       9.95       9.53
N      12.51       6.88      11.03
N      14.71       8.26      12.12
