27

O       3.34       6.80       8.71
O       4.67       5.83       7.14
O       7.54       9.03       5.48
H       4.46       8.93       5.75
H       4.59      11.14       7.55
H       4.59       9.30       9.73
H       7.48       9.26       9.62
H       7.34       7.07       7.84
H       6.46       7.74       4.25
H       7.69       6.96       5.29
H       9.51       8.13       3.98
H       8.51       7.11       2.92
H       8.29       8.88       2.93
C       6.78       9.19       8.78
C       6.74       7.98       7.78
C       5.17       8.02       7.83
C       4.34       6.79       7.90
C       7.68      11.36       7.45
C       5.14       9.03       6.61
C       6.72       9.00       6.57
C       6.76      10.21       7.59
C       5.19      10.22       7.62
C       5.21       9.22       8.83
C       7.48       7.85       4.66
C       8.51       8.00       3.56
O       8.76      11.30       8.11
O       7.33      12.32       6.66
