19

H      12.79      10.76      12.97
C      13.07       5.12      11.09
S      12.83       7.71      14.25
S      13.01       8.44      10.15
H      13.96       4.51      11.28
H      13.10       5.49      10.06
H      12.20       4.45      11.20
O      12.99       3.84      13.66
O      12.83       5.13      15.54
C      12.91       4.96      14.27
C      12.92      11.21      10.14
O      12.84      12.31      10.78
O      13.00      11.05       8.87
C      12.98       6.26      12.05
C      12.85       9.88      12.33
C      12.92       6.17      13.44
C      12.92       9.98      10.95
C      12.88       8.53      12.74
C      12.96       7.62      11.67
