10

O       4.56      16.14       1.14
O      -0.21       9.93      -1.14
C       3.56      16.15       0.33
C      -0.48      10.90      -0.33
C       2.76      14.96       0.27
C       0.46      11.98      -0.27
C       2.03      13.98       0.09
O       3.21      17.09      -0.44
C       1.22      12.93      -0.09
O      -1.48      11.00       0.44
