22

H      20.19      16.83       9.30
H      19.38      18.30       9.89
H      21.12      18.12      10.08
H      19.37      20.18      11.37
H      21.11      20.03      11.57
H      20.19      21.11      12.65
C      19.81      20.31      15.32
C      19.82      19.13      14.45
C      19.69      16.78      13.77
C      19.82      15.56      11.65
C      19.84      14.42      10.73
C      19.96      16.93      11.43
C      20.17      17.57      10.10
C      19.89      17.64      12.67
C      19.97      19.02      13.07
C      20.17      20.16      12.12
S      19.58      17.60      15.26
S      19.60      15.13      13.34
O      19.55      20.09      16.56
O      20.07      21.45      14.81
O      19.99      14.62       9.48
O      19.71      13.27      11.30
