30

H       4.42      14.07      13.74
H       8.91      12.22       9.11
H       5.04      11.01      10.69
H       8.29      15.28      12.15
C       6.90       8.42       7.27
C       6.43      17.87      15.58
C       6.40      16.72      14.63
C       6.93       9.58       8.22
C       7.45      16.45      13.72
C       5.88       9.84       9.13
C       7.44      15.39      12.82
C       5.89      10.90      10.02
C       6.34      14.51      12.81
C       6.99      11.78      10.04
C       5.28      14.73      13.70
C       8.05      11.56       9.14
C       5.33      15.81      14.57
C       8.00      10.49       8.27
C       6.24      13.37      11.91
C       7.09      12.92      10.94
O       5.77       8.03       6.85
O       7.56      18.26      16.00
O       8.03       7.93       6.94
O       5.30      18.36      15.90
F       8.51      17.28      13.67
F       4.82       9.01       9.18
F       9.04      10.35       7.41
F       4.29      15.94      15.44
F       8.24      13.64      10.78
F       5.09      12.65      12.07
