80

H       2.93      10.92       3.07
H       4.68       7.47      -5.64
H       5.14       7.20       5.40
H       6.14       9.24      -1.17
H       5.98       9.05       1.31
H       7.33      11.48      -5.61
H       6.92      12.23      -4.04
H       7.00      13.60      -6.78
H       6.34      14.36      -5.32
H       8.56      14.16      -4.17
H       8.78      14.99      -5.72
H       9.23      13.28      -5.56
H       1.99      10.40       7.13
H       1.01      10.87       5.70
H       2.47      12.78       7.61
H       1.53      13.28       6.19
H      -0.57      12.30       7.24
H       0.17      13.50       8.31
H       0.38      11.77       8.64
H       2.62       6.11      -4.49
H       4.29       5.55      -4.72
H       3.32       4.90      -3.39
H       4.95       6.59      -2.52
H       3.30       7.05      -2.20
H       4.08       5.20       4.12
H       3.08       5.58       2.71
H       4.51       4.55       2.52
H       5.00       6.84       1.69
H       6.01       6.46       3.08
H       0.97       7.03       0.78
H       4.51      11.59      -2.95
H       1.65       7.32       2.39
H      -0.07       7.65       2.09
H       1.27       9.76       2.15
H       0.50       9.53       0.59
H       1.31       7.82      -2.75
H       0.36       7.91      -1.25
H      -0.18       8.79      -2.70
H       0.86      10.41      -1.16
H       1.85      10.24      -2.60
C       4.44       9.07       7.11
C       4.16       9.07       5.64
C       5.17       9.25      -0.68
C       5.08       9.12       0.70
C       3.82       9.09       1.33
C       4.01       9.39      -1.45
C       2.64       9.24       0.57
C       2.74       9.43      -0.83
C       5.46       9.49      -7.06
C       4.22       9.45      -2.92
C       3.85       8.99       2.82
C       4.97      10.74      -4.86
C       3.50      10.13       4.96
C       4.55      10.67      -3.53
C       3.38      10.06       3.57
C       4.28       8.26      -3.68
C       4.47       7.90       3.48
C       6.72      12.26      -5.12
C       4.65       8.35      -5.02
C       7.07      13.63      -5.68
C       8.49      14.04      -5.26
C       1.85      11.17       6.35
C       1.60      12.52       6.99
C       0.33      12.53       7.84
C       4.02       6.92      -3.02
C       3.54       5.81      -3.96
C       4.97       6.67       2.77
C       4.11       5.43       3.05
C       1.29       9.14       1.25
C       4.61       7.99       4.87
C       0.94       7.70       1.65
C       1.52       9.71      -1.69
C       0.71       8.48      -2.12
C       5.03       9.56      -5.63
O       4.90       8.01       7.65
O       3.04      11.28       5.54
O       5.20       8.40      -7.67
O       4.20      10.15       7.74
O       6.03      10.51      -7.58
O       5.32      11.98      -5.35
