30

H      14.66       1.56      11.35
H       9.89       4.73      15.65
H       9.10       3.35      12.62
H       8.56       3.90      14.09
H      10.12       0.50      11.46
H       9.46       1.36      12.86
H      15.46       4.05      13.56
H      16.00       2.81      12.59
H      14.44       4.36      16.60
H      15.10       3.26      15.39
C      12.46       0.48      10.48
C      12.09       5.26      16.93
C      11.43       1.74      12.42
C      13.83       1.84      12.00
C      14.05       2.64      13.10
C      12.95       3.04      13.92
C      13.13       3.79      15.14
C      10.73       4.20      15.19
C      10.50       3.38      14.11
C      11.61       2.71      13.48
C      12.55       1.35      11.66
C      12.01       4.39      15.75
N       9.17       3.22      13.63
N      10.19       1.22      12.18
N      15.39       3.05      13.38
N      14.37       3.89      15.70
O      11.30       0.11      10.04
O      13.25       5.58      17.41
O      13.57       0.14       9.92
O      10.99       5.69      17.42
