28

O      -2.51      26.05       8.32
O      -4.75      26.25       7.96
H      -5.74      16.20       2.16
H      -1.52      15.78       2.93
H      -1.52      24.00       7.46
H      -5.74      24.43       6.69
O      -4.75      14.15       1.29
O      -2.51      13.95       1.66
C      -3.63      25.65       7.87
C      -3.63      14.56       1.75
C      -3.63      15.87       2.47
C      -2.44      16.36       3.02
C      -2.44      17.57       3.69
C      -3.63      18.34       3.84
C      -4.82      17.81       3.26
C      -4.82      16.59       2.59
C      -3.63      19.57       4.51
C      -3.63      20.64       5.10
C      -3.63      21.87       5.78
C      -2.44      22.40       6.35
C      -2.44      23.61       7.03
C      -3.63      24.34       7.15
C      -4.82      23.85       6.59
C      -4.82      22.64       5.92
Cl      -6.29      18.70       3.41
Cl      -0.97      18.17       4.37
Cl      -6.28      22.04       5.25
Cl      -0.97      21.51       6.21
