50

H       4.94       4.01      14.62
H       4.69       7.08      19.02
H       2.43       7.02      20.00
H       0.52       6.08      18.69
H       0.93       5.19      16.39
H       3.18       5.22      15.43
H       8.82       6.79      18.78
H      10.88       6.35      20.06
H      12.58       4.73      19.20
H      12.16       3.55      17.04
H      10.09       3.95      15.79
H       7.87       6.81      16.59
H       5.96       7.15      17.07
H       4.64       6.31      14.62
H       8.48       4.50      14.72
H       6.49       3.25      14.24
C       6.60       5.27      21.11
C       6.02       4.04      14.83
C       6.26       3.79      16.33
C       6.52       6.28      10.38
C       6.52       5.60      12.96
C       7.99       5.72      16.46
C       5.54       6.25      16.61
C       5.62       6.46      15.08
C       8.03       5.47      14.96
C       6.47       5.86      11.78
C       6.60       5.14      17.03
C       6.58       5.44      14.40
C       6.63       5.05      18.46
C       4.12       6.15      17.15
C       3.87       6.66      18.44
C       2.59       6.62      18.99
C       1.53       6.09      18.27
C       1.75       5.60      16.98
C       3.04       5.63      16.43
C       9.27       5.38      17.21
C       6.64       5.14      19.67
C       9.54       6.06      18.41
C      10.71       5.82      19.13
C      11.66       4.91      18.65
C      11.42       4.25      17.44
C      10.24       4.48      16.73
Cl       9.12       6.66      14.16
Cl       7.61       2.61      16.56
Cl       4.82       3.02      17.07
Cl       6.01       8.17      14.70
O       7.67       5.00      21.74
O       5.48       5.64      21.60
O       7.63       6.74       9.99
O       5.45       6.16       9.70
