20

H      14.14      15.81      19.84
H      15.03      15.22      21.26
H      16.81      14.26      19.75
H      15.92      14.86      18.33
C      16.00      11.25      17.87
O      16.95      12.07      17.59
O      15.89      10.06      17.46
C      11.82      13.49      21.39
O      10.83      12.76      21.70
O      12.02      14.70      21.76
F      13.60       9.78      18.75
F      11.79      10.76      20.29
C      12.87      12.90      20.51
C      14.94      11.79      18.76
C      14.00      13.62      20.12
C      13.81      11.05      19.16
C      14.99      13.09      19.28
C      12.81      11.58      20.00
C      14.70      14.96      20.25
C      15.81      14.36      19.30
