34

N       1.53       9.42      26.52
N      -0.74       8.67      26.46
N       0.32       9.10      28.57
O       0.61      14.43      18.43
O      -1.26      14.00      17.19
O      -0.13       3.68      18.20
O       1.92       3.93      17.25
C      -0.37      13.71      18.05
C       0.94       4.32      17.94
C       0.63       7.92      19.84
C       0.41       8.99      21.81
C       0.04      10.10      19.88
O      -5.05       9.40      29.23
O      -4.73       7.46      30.38
O       5.58       8.70      29.57
O       5.34      10.73      30.59
C      -4.38       8.37      29.58
C       4.96       9.77      29.85
C       1.43       9.40      27.87
C       0.42       9.03      25.88
C      -0.73       8.75      27.81
C       3.66       9.84      29.21
C       2.61       9.70      28.61
C      -3.06       8.32      28.98
C      -1.97       8.47      28.47
C       0.45       9.00      24.46
C       0.44       8.98      23.24
C      -0.41      12.40      18.67
C      -0.25      11.32      19.20
C       0.87       6.71      19.12
C       0.98       5.64      18.54
N       0.72       7.84      21.18
N       0.05      10.15      21.22
N       0.31       9.01      19.12
