20

H       5.55      20.72       1.29
H       1.51      22.10      -1.29
H       5.78      22.18      -0.72
H       1.28      20.64       0.72
C       3.14      18.24       4.45
C       3.92      24.59      -4.45
C       4.80      21.84      -0.40
C       2.26      20.98       0.40
C       3.66      22.24      -1.13
C       3.40      20.59       1.13
C       2.39      21.80      -0.72
C       4.67      21.03       0.72
C       3.79      23.06      -2.28
C       3.27      19.76       2.28
C       3.19      19.06       3.27
C       3.87      23.76      -3.27
O       4.27      17.98       5.00
O       2.79      24.84      -5.00
O       1.99      17.85       4.84
O       5.07      24.98      -4.84
