16

O      20.45      17.05      17.91
O      22.73      17.12      18.01
O      20.46       9.86      22.68
S      23.11      14.74      19.63
S      20.08      12.25      21.05
C      21.59      16.61      18.27
O      22.75       9.93      22.77
H      19.48      14.93      19.23
C      20.50      14.65      19.49
C      21.60      15.39      19.08
C      22.70      12.33      21.19
C      22.30      13.45      20.42
C      20.89      13.54      20.26
C      21.60      11.59      21.60
C      21.61      10.37      22.41
H      23.72      12.06      21.45
