23

N       7.62       2.80       1.29
H      11.28       1.15       1.22
N       7.25       1.87       2.13
H      10.93       0.58       2.85
N       8.36       1.25       2.60
H      11.31       2.91       3.75
N      11.41       5.22      -0.60
H      12.74       2.20       2.91
N      11.67       5.51      -1.90
H      13.64       4.48       2.01
N      12.54       6.48      -1.94
H      12.54       4.85       3.38
N      12.86       6.82      -0.67
H      11.16       6.31       2.01
O      11.72       3.69       1.86
H      12.85       6.85       1.99
C       9.43       1.82       2.01
C      10.86       1.45       2.19
C      11.72       2.58       2.78
C      12.60       4.74       2.29
C      12.17       6.06       1.65
C      12.16       6.04       0.16
N       8.97       2.79       1.20
