48

H       4.27       7.59      21.53
H       8.26      10.95      27.38
O       6.71       5.68      22.70
O       4.62       6.37      23.73
O       5.23       7.18      21.50
O      10.22      11.82      24.89
H       8.28       5.75      22.46
H       6.49      12.42      25.79
O       7.93      12.58      25.27
O       9.16      11.25      26.98
H       5.86      11.03      20.78
H      11.25       7.27      24.71
O       7.87       7.80      20.84
O      10.19       8.21      21.54
O       9.17       6.19      22.26
O       4.51      10.00      26.82
O       6.81      10.44      27.58
O       5.59      12.05      26.13
C       8.40      12.11      19.92
C       6.16       5.92      28.34
C       8.14       8.43      23.30
C       6.61       9.81      25.12
C       6.60       8.15      23.59
C       8.15      10.08      24.82
O       3.82      10.04      23.11
O       5.36      12.05      22.99
O       5.30      10.34      21.21
O       9.33       8.07      27.22
O       9.23       6.19      25.56
O      10.91       7.97      25.37
C       6.24       6.71      27.14
C       8.41      11.42      21.18
C       8.43       8.52      24.85
C       6.32       9.71      23.57
C       6.90       8.25      25.14
C       7.84       9.98      23.27
C       6.46       7.39      26.17
C       8.26      10.82      22.22
S       5.73       6.73      22.88
S       8.96      11.56      25.47
S       8.89       7.66      21.83
S       5.78      10.57      26.55
S       5.05      10.67      22.75
S       9.51       7.56      25.89
O       7.29       5.65      28.86
O       7.22      12.34      19.48
O       9.53      12.36      19.40
O       4.99       5.62      28.76
