17

C       7.33       6.49      20.49
O       7.48       7.64      17.01
C       7.39       6.60      19.10
C       7.46       2.88      20.21
O       7.34       8.93      18.90
C       7.39       2.77      21.59
C       7.43       4.23      19.81
C       7.35       5.13      20.89
H       7.22       7.23      22.25
C       7.40       7.82      18.28
S       7.48       5.06      18.30
S       7.30       4.31      22.41
O       7.25       7.55      21.33
H       7.52       2.01      19.56
O       7.31       1.69      23.66
C       7.39       1.54      22.39
O       7.47       0.44      21.75
