38

H      12.99       1.09       2.08
H      15.47      -0.98      -4.22
H      23.27       0.90      -2.02
H      14.01      -0.51      -5.11
H      15.39       0.60      -5.03
H      13.61       1.36      -3.41
H      15.08       0.87      -2.56
H      14.06      -1.43      -2.22
H      12.56      -0.84      -2.94
H      21.98       2.68       4.80
H      23.63       3.33       4.97
H      22.28       4.41       4.55
H      23.65       3.90       2.50
H      22.02       3.27       2.33
H      22.81       1.00       3.04
H      24.46       1.62       3.21
C      12.82       0.67       1.09
C      23.60       1.09      -1.00
C      15.07       0.96       0.03
C      21.42       1.33       0.23
C      16.29       1.14       0.11
C      20.19       1.34       0.26
C      17.62       1.27       0.19
C      18.85       1.32       0.24
C      13.00      -0.06      -1.02
C      23.76       1.48       1.20
C      13.72       0.61       0.01
C      22.81       1.30       0.15
C      13.44      -0.53      -2.36
C      14.25       0.49      -3.18
C      14.81      -0.13      -4.46
C      23.51       1.75       2.64
C      22.95       3.15       2.90
C      22.70       3.41       4.39
N      11.66       0.07       0.76
N      11.77      -0.35      -0.54
N      24.99       1.39       0.68
N      24.90       1.14      -0.67
