27

C      12.39       2.62       7.13
O      10.58       1.07       8.58
O      16.49       4.59       6.37
H      18.20       1.44       7.70
H      17.06       1.53       6.32
H      16.82       0.30       7.60
O      11.82       1.49      10.44
O      15.82       3.35       4.59
O      13.01       3.80       5.12
H      11.34       2.67       6.85
O      16.40       2.26       8.18
H      13.21       5.78       5.77
H      11.55       5.10       5.89
H      12.26       5.48       4.28
H      13.97       0.19      10.11
H      15.61       0.86       9.88
H      14.40       1.73      10.84
C      12.75       1.99       8.33
C      12.47       5.12       5.29
C      14.55       1.11       9.94
C      17.15       1.33       7.40
C      14.10       1.84       8.70
C      15.07       2.38       7.84
C      11.63       1.47       9.18
C      14.72       3.06       6.66
C      15.76       3.72       5.81
C      13.36       3.17       6.30
