20

O      14.12      16.77       8.85
O       7.14      16.13       7.23
O       7.14      16.29       9.50
O      14.12      14.51       8.61
H      11.96      17.66      11.22
H      11.77      14.08       7.23
H       9.32      14.39       7.01
H       9.56      18.95       9.79
H       9.44      17.81      11.15
H      12.06      18.75       9.82
C      13.53      15.66       8.69
C       7.72      16.15       8.38
C      11.36      16.72       9.29
C      12.05      15.73       8.60
C      11.27      14.87       7.80
C       9.89      15.04       7.68
C       9.20      16.02       8.42
C       9.98      16.84       9.24
C       9.95      18.01      10.20
C      11.52      17.89      10.24
