30

Br       7.23      11.16      17.29
Br      12.02       8.43      24.16
Br      14.63       8.07      19.49
Br      13.31       7.66      16.57
H       9.72      11.04      16.22
H       7.14      10.97      20.22
H      13.18       8.34      21.84
O      11.48      11.49      14.75
O       8.18      10.09      25.20
O       9.22       8.09      25.02
O      13.06       9.88      14.66
C      10.27      10.40      16.90
C      12.05      10.41      15.19
C       9.78      10.15      18.17
C       9.04      10.17      20.92
C       8.12      10.61      19.91
C       8.48      10.58      18.60
C       8.76      10.31      22.31
C       9.54       9.62      23.27
C      12.18       8.98      17.32
C      11.91       8.99      18.71
C      10.65       9.56      19.15
C      12.80       8.55      19.76
C      12.45       8.63      21.08
C      11.18       9.09      21.51
C      10.28       9.58      20.52
C      10.77       9.08      22.86
C      11.49       9.87      16.46
C       8.95       9.29      24.61
I       7.32      11.73      22.86
