32

H       5.28       9.79       4.71
H       5.16       9.96       2.25
H       5.25       5.63       2.01
H       5.00      11.01      -1.92
H       5.00       6.68      -2.02
H       4.95       6.77      -4.49
H       5.09       6.80       0.04
H       5.11       9.88       0.12
H       5.41       5.40       5.54
H       4.88      11.14      -5.45
C       5.39       7.60       6.24
C       4.96       8.91      -6.09
C       5.35       7.65       4.77
C       5.29       8.89       4.10
C       5.22       8.98       2.72
C       5.20       7.80       1.94
C       5.26       6.56       2.59
C       5.34       6.46       3.99
C       5.12       7.80       0.49
C       5.08       8.88      -0.33
C       4.98      10.07      -2.47
C       5.01       8.85      -1.78
C       4.98       7.65      -2.53
C       4.95       7.69      -3.91
C       4.94       8.91      -4.61
C       4.94      10.12      -3.87
O       5.37       6.44       6.80
O       5.44       8.70       6.88
O       4.88      10.06      -6.68
O       5.05       7.80      -6.71
O       5.39       5.24       4.54
O       4.91      11.33      -4.46
