54

C       6.75       3.26      21.73
O       6.86       7.23      20.29
C       8.80       5.04      22.38
C       5.95      -0.95      21.31
H       3.25      -4.29      17.39
O       4.42      -7.55      19.32
C       3.85      -2.12      26.97
C       5.40      -2.59      19.42
H       2.84      -2.25      26.59
H       6.09       4.76      20.32
C       4.61      -5.21      18.78
C       5.32      -1.74      22.27
H       9.60       5.74      22.59
C       5.41      -1.72      28.78
H       7.49      -1.69      28.26
C       4.03      -4.11      18.12
C       4.06      -6.58      18.55
C       7.94       6.71      20.73
H       3.96      -1.94      17.96
H       3.27      -1.84      29.03
H       4.73      -2.61      21.99
H       7.17       0.78      20.94
C       6.13      -0.29      24.02
C       6.68       0.18      21.71
H       5.94       2.57      21.48
C       6.01      -3.69      20.04
C       6.76       0.53      23.06
C       4.93      -2.13      26.06
H       7.09      -2.04      25.84
C       6.25      -2.00      26.53
H       6.79      -3.53      20.78
C       7.66       2.93      22.74
C       6.48      -1.81      27.88
H       6.09      -5.82      20.24
C       4.09      -1.90      28.32
H       9.37       3.58      23.87
H       6.20       0.01      25.07
C       5.68      -1.33      30.21
C       5.77      -1.21      19.83
C       5.41      -1.42      23.64
C       4.43      -2.81      18.43
C       7.51       1.71      23.58
C       7.85       5.38      21.40
O       6.89      -1.01      30.48
O       5.88      -0.28      19.03
C       8.69       3.84      23.07
O       3.76      -3.03      24.20
O       7.97       1.68      24.73
C       5.62      -4.99      19.72
O       4.72      -1.32      31.03
C       4.64      -2.26      24.61
O       9.08       7.25      20.66
O       3.15      -6.75      17.68
C       6.83       4.48      21.08
