22

O      10.62       6.26      14.06
O       9.30       8.06      13.64
H       4.89       7.54      15.54
H       3.04       6.36      17.15
O       9.17       2.68      19.76
O      10.18       2.84      17.72
O       1.43       3.11      20.46
O       2.14       1.26      19.36
C       6.22       5.95      16.27
C       5.03       6.67      16.17
C       4.08       6.07      17.02
C       4.66       4.96      17.64
C       9.57       6.91      14.20
C       9.21       3.00      18.53
C       2.25       2.48      19.70
C       6.99       4.15      17.66
C       8.01       3.60      18.01
C       4.04       4.02      18.46
C       3.32       3.28      19.12
C       7.45       6.17      15.64
C       8.47       6.45      15.02
N       5.99       4.90      17.18
