31

H       6.79       6.08       5.24
H       7.35       6.48       7.48
H       5.35       3.48       8.52
H       5.27       5.23       8.23
H       4.71       4.83       6.00
H       4.78       3.09       6.29
H       8.98       3.09       7.68
H       7.52       2.23       8.18
H       8.46       2.81       5.44
H       8.87       5.62       7.25
H       8.31       5.21       5.02
C       7.78       5.54       7.13
C       5.72       4.29       7.87
C       5.34       4.03       6.40
C       5.91       3.51       2.98
C       7.26       4.38       8.03
C       7.41       5.27       5.65
C       6.62       3.95       5.52
C       7.54       2.80       6.05
C       7.89       3.05       7.55
C       6.25       3.71       4.13
C       7.61       4.64       9.42
C       7.93       4.87      10.57
C       8.50       5.25      11.83
C       5.30       3.16       1.73
C       6.92       1.49       5.87
N       6.41       0.45       5.76
O       9.34       4.45      12.36
O       8.19       6.40      12.29
O       5.59       2.03       1.21
O       4.44       3.99       1.25
