30

H      24.68       9.17      14.64
H      26.81      10.91      15.98
H      26.53       9.19      16.25
H      28.46      10.01      14.48
H      27.29      11.00      12.42
H      24.57      10.78      12.81
H      25.51      11.97      13.72
H      25.58       8.54      12.20
H      27.56       9.40      10.49
H      27.27       7.67      10.72
H      29.36       9.38      12.15
H      28.48       6.57      12.98
H      29.43       7.72      13.94
H      26.71       7.57      14.29
O      23.12      11.43      15.16
O      24.32      10.82      17.01
O      30.95       7.16      11.64
O      29.82       7.78       9.76
C      24.11      10.86      15.75
C      25.12      10.16      14.86
C      26.51       9.98      15.48
C      27.42       9.69      14.29
C      26.71      10.29      13.03
C      25.39      10.89      13.53
C      26.61       8.87      12.41
C      27.56       8.59      11.24
C      28.93       8.39      11.89
C      28.62       7.64      13.20
C      27.31       8.27      13.68
C      29.98       7.72      11.03
