28

C      12.63      -4.71       7.34
C      11.43      -4.77       8.26
H      12.58      -7.43       8.14
H      13.60      -6.59       9.32
H      14.34      -7.62       8.09
C      13.87      -3.47       5.60
C      13.94      -2.25       4.71
H      16.76      -3.60       5.03
H      15.78      -4.14       3.66
H      16.62      -5.32       4.66
O      16.75      -6.44       7.27
O      15.61      -7.60       5.67
O      10.74      -2.72       5.66
O      11.88      -1.59       7.28
H      10.51      -4.50       7.73
H      11.54      -4.07       9.10
H      11.29      -5.77       8.68
H      14.07      -1.34       5.32
H      13.01      -2.13       4.14
H      14.77      -2.30       4.00
C      15.77      -6.62       6.47
C      14.71      -5.56       6.47
C      11.72      -2.56       6.47
C      12.77      -3.62       6.47
C      13.62      -5.71       7.35
C      13.53      -6.90       8.27
C      14.86      -4.47       5.60
C      16.06      -4.38       4.69
