20

H       0.93       2.95       4.71
H       0.92       4.74       2.98
H       6.20       5.38       3.60
H       6.19       4.13       2.32
H       6.20       2.32       4.08
H       6.20       3.56       5.36
O       4.23       1.37       6.30
O       1.96       1.28       6.30
O       1.95       6.42       1.40
O       4.22       6.31       1.38
C       3.09       1.75       5.88
C       3.08       5.94       1.81
C       3.07       4.88       2.85
C       3.07       2.81       4.85
C       4.25       4.35       3.36
C       1.87       3.34       4.33
C       4.25       3.35       4.33
C       1.86       4.35       3.36
C       5.76       4.42       3.29
C       5.76       3.28       4.40
