36

H      -2.95      11.49       3.41
C      -7.53       7.56       4.77
C      -9.26       9.41       2.12
C      -6.89      11.85       1.08
C      -6.20      13.65       3.57
O      -3.63      10.22       1.46
O      -5.04       8.43       1.36
O      -8.97      12.84       5.28
O      -7.60      11.97       6.87
H      -5.08      10.98       6.89
O      -3.35      12.15       5.31
O      -5.72       9.05       6.96
H      -8.54       7.95       4.62
H      -7.18       7.78       5.79
H      -7.53       6.47       4.60
H      -8.66       8.49       2.16
O      -6.59       8.10       3.80
O      -9.01      10.24       3.27
O      -5.93      12.10       0.37
H      -5.63      14.14       4.40
H      -7.93      12.10       0.78
O      -6.79      14.31       2.73
H      -9.03       9.96       1.19
H     -10.32       9.16       2.14
C      -6.71      11.23       2.44
C      -6.23      12.17       3.61
C      -7.18      11.41       4.63
C      -7.99      12.12       5.67
C      -4.66       9.57       1.80
C      -6.02      10.41       4.99
C      -5.06      11.16       3.97
C      -5.55      10.21       2.82
C      -6.51       9.46       3.81
C      -7.68      10.50       3.46
C      -3.67      11.62       4.24
C      -5.59      10.12       6.39
