32

H       1.14      13.42       7.30
H      -2.37      15.15       9.83
H       0.92      17.83       7.31
H       0.92      15.39       7.05
H      -2.75      10.89       8.96
H      -2.78      13.34       9.11
H       2.04      11.62       6.30
H       1.12      10.10       6.10
H       2.13      10.33       7.51
H      -3.57      18.19       9.69
H      -2.34      18.52      10.90
H      -3.19      16.96      10.91
C      -0.79      19.37       8.59
C      -0.85       9.28       8.12
C      -0.81      10.76       8.06
C      -0.78      17.88       8.63
C       0.29      11.49       7.55
C       0.27      12.88       7.68
C      -1.72      17.12       9.35
C      -1.66      15.73       9.24
C       0.19      17.23       7.85
C       0.19      15.85       7.71
C      -1.90      11.46       8.60
C      -1.90      12.85       8.70
C      -0.79      13.59       8.26
C      -0.75      15.06       8.40
C       1.46      10.85       6.83
C      -2.76      17.73      10.26
O       0.33      19.97       8.48
O       0.26       8.65       8.13
O      -2.00       8.72       8.19
O      -1.93      19.94       8.62
