16

C      15.32       3.47      18.53
O      14.31       4.16      18.18
O      15.59       2.27      18.16
C      19.19       5.83      22.17
H      19.21       3.33      21.11
F      15.14       6.22      19.57
H      17.51       2.35      19.53
H      16.97       7.01      21.16
C      16.30       4.11      19.46
C      18.19       5.23      21.24
C      16.17       5.42      19.94
C      18.35       3.91      20.78
C      17.10       5.98      20.81
C      17.41       3.37      19.90
O      20.16       5.08      22.55
O      18.99       7.04      22.51
