23

C      14.90      12.85      11.80
H      14.82      10.35       7.93
C      14.58       7.03      11.75
H      11.85      13.33       7.76
N      13.35      11.83       7.40
H      12.34      12.70      10.43
N      13.74      11.33       9.51
H      13.80       8.72       9.79
O      15.29      13.40      10.72
O      14.66      13.43      12.90
H      15.35       8.65      13.79
O      14.89       6.44      12.84
H      15.44      11.16      13.79
C      14.07      11.07       8.22
O      14.26       6.47      10.66
C      12.53      12.61       8.19
C      12.76      12.31       9.51
C      14.25      10.65      10.66
C      14.20       9.26      10.66
C      14.62       8.53      11.77
C      15.05       9.22      12.91
C      15.10      10.61      12.91
C      14.73      11.35      11.78
