26

O       9.52       9.18      10.17
H      10.29      13.97       5.57
O      11.96      18.15       3.91
O       8.41      10.46      11.65
O      11.52      19.60       5.60
H       8.71      14.87       9.67
H      11.17      12.49       7.04
C      10.86      16.02       5.31
H      10.98      15.94       4.23
C      10.20      11.43       8.64
H      11.09      18.35       7.77
H      10.46      16.37       9.15
C      10.90      17.38       7.30
C      10.48      14.92       6.07
C       8.85      12.77      10.13
C      10.50      12.57       7.90
H       8.20      12.84      11.01
H      10.61      10.46       8.36
C       9.09      10.30      10.57
C       9.15      13.91       9.39
C      11.53      18.45       5.12
C      10.54      16.28       8.07
C       9.98      13.83       8.26
C      11.08      17.27       5.92
C       9.37      11.52       9.77
C      10.33      15.02       7.46
