32

H      21.02      12.91       6.73
H      22.67       8.93       6.73
H      19.86      11.75      12.55
H      23.84      10.10      12.55
H      21.06      12.92       4.22
H      22.63       8.93       4.22
H      19.85      11.71      15.06
H      23.85      10.13      15.06
C      21.84      10.92       2.59
C      21.85      10.92      16.69
C      21.40      12.05       4.78
C      22.29       9.79       4.78
C      20.72      11.37      14.50
C      22.98      10.47      14.49
C      21.38      12.05       6.17
C      22.31       9.80       6.17
C      20.72      11.39      13.11
C      22.97      10.46      13.11
C      21.85      10.92       6.88
C      21.85      10.92      12.40
C      21.85      10.92       4.08
C      21.85      10.92      15.20
C      21.85      10.92      10.93
C      21.85      10.92       8.35
N      22.70      10.08       8.98
N      20.99      11.76       8.98
N      22.69      10.07      10.30
N      21.00      11.77      10.30
O      22.12       9.82       2.00
O      21.57      12.03       2.00
O      22.95      10.64      17.28
O      20.75      11.20      17.28
