32

H      10.23       5.78       4.51
H       9.52      11.02       3.63
H      10.21       5.54       2.01
H       9.92      10.38       5.19
H      10.26       9.90       0.49
H      10.69      10.87       1.83
H       8.68       4.91      -1.80
H       8.32       5.10      -4.29
H      11.16       8.42      -1.90
H      10.83       8.58      -4.38
C       9.26       7.00      -5.93
C       9.52       6.87      -4.47
C      10.35       7.79      -3.80
C      10.54       7.70      -2.43
C       9.89       6.68      -1.70
C       9.14       5.71      -2.38
C       8.94       5.82      -3.75
C      10.19       6.51       2.49
C      10.20       6.65       3.86
C      10.18       7.67       1.67
C      10.15       7.93       4.48
C      10.13       9.09       3.68
C      10.07       7.99       5.97
C      10.18       8.95       2.26
N       9.92       6.57      -0.30
N      10.16       7.68       0.28
N      10.09      10.38       4.18
N      10.13      10.10       1.48
O       8.49       6.14      -6.47
O       9.82       7.98      -6.55
O      10.02       6.89       6.60
O      10.03       9.15       6.54
