16

C       4.10       8.68      18.40
C       5.44       9.15      20.81
C       6.05       9.48      19.60
C       3.49       8.35      19.60
H       3.59       8.48      17.46
H       5.95       9.34      21.75
H       7.05       9.92      19.59
H       2.50       7.90      19.62
C       6.04       9.61      17.09
O       2.27       7.95      22.13
O       4.27       8.18      23.15
C       5.39       9.25      18.39
O       5.27       9.65      16.06
C       3.50       8.21      22.12
O       7.28       9.87      17.07
C       4.16       8.58      20.82
