18

C       9.17       3.95      19.05
C       5.82       5.52      21.72
C       7.13       4.13      20.45
C       7.87       5.34      20.39
O       9.80       7.29      20.16
O      10.41       6.49      18.20
O       9.98       2.24      17.68
O      11.40       3.92      18.28
C      10.27       3.34      18.27
S       7.89       2.89      19.53
S       7.13       6.59      21.29
C       4.72       6.04      22.54
H       5.22       3.46      21.40
O       4.81       7.26      22.90
O       3.77       5.22      22.81
N       9.82       6.41      19.28
C       9.01       5.23      19.57
C       5.95       4.24      21.21
