92

H       5.94      19.15       9.42
H       7.88      19.92      13.18
H      10.25      19.26       9.66
H      -1.27      21.42      24.32
H       8.31      21.29      20.54
H       6.02      21.30      24.17
H      -0.13      20.66      16.98
H       4.78      20.63      16.70
C       9.79      19.07       3.87
C       7.86      20.90      30.24
C       8.11      19.17       9.39
C       6.85      19.29      10.00
C       6.77      19.60      11.36
C       7.95      19.70      12.11
C       9.20      19.55      11.52
C       9.28      19.32      10.15
C       8.17      21.36      24.40
C      -2.20      21.41      23.74
C      -2.15      21.42      22.35
C       8.27      21.33      21.62
C       7.03      21.27      22.26
C       6.98      21.32      23.65
C       1.55      20.42      15.67
C       2.96      20.45      15.59
C       3.69      20.64      16.76
C       3.10      20.82      18.02
C       1.69      20.86      18.09
C       0.96      20.65      16.92
C       5.08      22.21      20.98
C       5.87      21.11      21.35
C       5.69      19.90      20.66
C       4.81      19.81      19.57
C       4.01      20.91      19.19
C       4.18      22.12      19.90
C      -0.74      22.44      20.55
C      -0.93      21.41      21.50
C      -0.12      20.26      21.40
C       0.77      20.11      20.32
C       0.89      21.10      19.32
C       0.10      22.26      19.45
C      11.13      20.86      12.46
C      10.36      19.69      12.43
C      10.55      18.74      13.45
C      11.44      18.98      14.51
C      12.24      20.15      14.53
C      12.06      21.09      13.49
C       5.36      21.13      12.71
C       5.55      19.85      12.16
C       4.76      18.80      12.65
C       3.87      19.00      13.72
C       3.75      20.27      14.34
C       4.53      21.33      13.82
C       7.25      20.17      27.90
C       7.94      21.06      28.73
C       8.68      22.09      28.12
C       8.70      22.23      26.72
C       8.10      21.27      25.88
C       7.40      20.22      26.50
C       9.16      17.91       7.49
C       8.28      18.92       7.93
C       7.66      19.70       6.94
C       7.97      19.53       5.58
C       9.10      18.76       5.19
C       9.64      17.90       6.17
Br       3.30      23.67      19.29
Br       5.34      23.85      21.89
Br       4.78      18.21      18.55
Br       6.70      18.39      21.21
Br       0.07      23.55      18.05
Br      -1.71      24.06      20.78
Br       1.68      18.47      20.10
Br      -0.36      18.86      22.65
Br      12.94      22.75      13.59
Br      10.84      22.18      11.12
Br      11.48      17.78      15.98
Br       9.57      17.12      13.37
Br       4.58      23.00      14.72
Br       6.32      22.59      11.95
Br       2.98      17.52      14.47
Br       5.01      17.07      11.92
Br       6.71      18.78      25.47
Br       6.04      18.95      28.69
Br       9.52      23.77      25.96
Br       9.62      23.30      29.24
Br      11.08      16.68       5.81
Br       9.67      16.54       8.71
Br       6.82      20.27       4.28
Br       6.47      21.10       7.43
O      10.54      18.21       3.31
O       9.63      20.26       3.46
O       7.23      21.82      30.87
O       8.40      19.88      30.74
