25

O       7.70      -2.88      11.70
O       5.56      -3.47      11.20
H       4.75      -3.98      18.15
H       3.62      -5.18      17.48
H       4.43      -5.49      19.04
O       3.71      -7.03      15.64
H       5.53      -6.82      17.25
H       6.64      -5.60      17.86
H       5.85      -3.10      10.34
O       4.90      -7.99      13.97
H       6.98      -3.47      16.69
H       5.34      -5.66      12.57
C       6.59      -3.96      15.79
C       5.91      -5.17      15.91
C       5.46      -5.77      14.72
C       5.68      -5.16      13.48
C       6.33      -3.93      13.39
C       6.79      -3.32      14.57
C       4.64      -7.02      14.78
C       7.51      -2.01      14.64
C       5.71      -5.74      17.29
C       4.56      -5.06      18.04
C       6.63      -3.36      12.04
O       7.14      -1.03      13.89
O       8.42      -1.95      15.52
