20

C      10.99      -1.42       5.03
H      12.03      -1.59       5.31
C       6.17       2.07       3.93
H       5.11       2.24       3.75
C       6.78       0.81       4.03
C       9.06      -0.22       4.52
H       6.24      -0.14       3.93
C      10.41      -0.15       4.87
H      10.96       0.78       5.02
S       8.53      -1.86       4.41
C       7.07       3.11       4.12
S       8.67       2.51       4.39
C      10.31      -3.91       4.87
O      11.49      -4.33       5.11
C       6.82       4.56       4.21
O       5.62       4.97       4.06
O       9.28      -4.64       4.67
O       7.84       5.29       4.47
C      10.10      -2.46       4.82
C       8.14       0.87       4.30
