26

H       7.31       8.78      15.70
H       6.07       9.21      11.60
O       4.70       2.69      14.81
O       8.80      13.28      14.64
O       5.16       2.60      12.60
O       8.32      13.41      12.43
C       5.37       4.69      13.69
C       5.19       5.49      14.82
C       5.05       3.22      13.71
C       5.90       5.27      12.53
C       6.13       7.42      13.66
C       8.34      12.80      13.55
C       6.27       6.61      12.51
C       6.63       8.81      13.65
C       5.56       6.84      14.81
C       7.75      11.42      13.58
C       7.79      10.65      14.75
C       7.12      10.88      12.45
C       7.24       9.37      14.79
C       6.57       9.60      12.48
H       4.75       5.06      15.72
H       6.03       4.64      11.65
H       6.73       7.03      11.61
H       5.39       7.45      15.69
H       8.29      11.06      15.63
H       7.07      11.48      11.54
