22

O      11.83      17.21       1.14
O       9.74      16.43       1.53
O       9.75      22.67       8.20
C      10.72      17.20       1.77
O      11.83      23.50       7.84
C      10.54      18.19       2.88
C       9.32      18.21       3.61
C       9.14      19.09       4.65
H       8.54      17.50       3.32
C      10.17      19.99       5.02
C      10.03      20.90       6.09
H       8.20      19.10       5.21
H       9.10      20.93       6.66
C      11.05      21.77       6.43
C      12.27      21.75       5.71
H      13.05      22.45       6.00
C      12.44      20.88       4.66
H      13.39      20.85       4.11
H      12.49      19.02       2.65
C      11.41      19.98       4.28
C      11.56      19.06       3.22
C      10.86      22.72       7.58
