10

O       2.00      11.32      11.48
C       0.85       8.37      16.46
C       0.85       9.00      15.41
C       0.84       9.69      14.25
C       0.84      10.31      13.20
O       1.99       7.40      18.22
O      -0.29       7.36      18.18
C       0.86      11.02      11.94
C       0.85       7.65      17.71
O      -0.28      11.25      11.41
