24

O       8.11      12.65       2.57
O       7.95      11.73       0.49
O       8.22       6.44       4.55
O       8.08       8.04       6.16
H      11.91       7.74       1.70
H      11.86       8.02       3.46
H      12.13       9.38       2.35
H       9.55       7.71       2.52
H       9.80       9.06       1.41
H       9.97       9.31       4.47
H      10.05      10.64       3.32
H       7.90      10.57       4.42
H       7.49       9.62       1.53
H       6.33      10.50       2.52
H       6.30       8.81       4.32
H       7.16       7.95       3.03
C      11.57       8.44       2.48
C      10.06       8.67       2.41
C       9.59       9.65       3.49
C       8.07       9.84       3.62
C       7.41      10.36       2.33
C       7.88      11.68       1.77
C       7.30       8.54       3.95
C       7.92       7.61       4.96
