46

H       2.70       5.67       4.55
H       6.93       6.36       4.66
H       6.91       6.85       2.20
H       3.37       4.80      -1.86
H       6.32       7.30      -4.96
H       6.32       7.86      -2.53
H      -0.12       4.99       0.95
H       0.86       5.44      -0.45
H       0.61       3.73      -0.06
H       2.92       4.47       0.65
H       1.96       3.99       2.05
H       1.44       6.36       2.56
H       2.28       6.88       1.09
H       0.86       2.28      -4.75
H       2.30       1.24      -4.68
H       1.15       1.25      -3.33
H       3.19       2.59      -2.73
H       1.75       3.62      -2.79
H       2.35       4.33      -5.12
H       3.73       3.27      -5.12
C       4.83       6.37      -2.04
C       4.85       5.53      -6.26
C       4.79       6.50       1.99
C       4.84       5.59       6.19
C       3.57       6.20       2.65
C       3.62       5.92       4.02
C       4.82       6.63       0.58
C       4.82       5.94       4.74
C       6.01       6.31       4.08
C       5.99       6.59       2.73
C       2.28       6.12       1.89
C       2.03       4.74       1.25
C       0.78       4.72       0.37
C       3.11       3.91      -4.45
C       2.43       3.02      -3.41
C       1.64       1.88      -4.07
C       4.84       6.59      -0.64
C       4.00       5.35      -2.56
C       3.98       5.03      -3.92
C       4.84       5.75      -4.78
C       5.67       6.76      -4.27
C       5.67       7.08      -2.92
O       3.72       5.57      -6.85
O       5.98       5.37      -6.83
O       3.72       5.30       6.73
O       5.97       5.62       6.78
