28

Br      23.43      16.96       2.98
Br      26.40      11.81       2.98
Br      30.29      20.92       8.59
Br      33.26      15.77       8.59
H      25.71      17.33       4.51
H      27.87      13.60       4.51
H      28.82      19.13       7.06
H      30.98      15.40       7.06
O      32.72      20.19       9.81
O      33.85      18.24       9.82
C      32.87      18.98       9.48
C      23.82      13.75       2.09
O      23.97      12.53       1.76
O      22.84      14.49       1.76
C      24.89      14.37       2.96
C      24.82      15.72       3.40
C      25.81      16.29       4.20
C      26.91      15.54       4.62
C      27.01      14.20       4.20
C      26.03      13.63       3.40
C      27.91      16.11       5.43
C      28.78      16.61       6.14
C      29.77      17.19       6.95
C      29.68      18.53       7.37
C      30.66      19.09       8.17
C      31.80      18.36       8.61
C      31.87      17.01       8.17
C      30.88      16.43       7.37
