22

H       5.07       2.32       8.14
H       8.04      -2.40       7.96
H       9.35       2.24       7.95
H       3.76      -2.31       8.16
H       3.78       0.18       8.18
H       9.33      -0.26       7.93
C       5.90      -3.98       8.05
C       5.94       0.33       8.08
C       7.22       3.91       8.06
C       4.71      -0.38       8.13
C       7.20       2.41       8.05
C       5.91      -2.49       8.05
C       8.40       0.31       7.98
C       4.69      -1.76       8.11
C       8.42       1.68       7.99
C       7.12      -1.82       8.00
C       5.99       1.74       8.10
C       7.17      -0.41       8.02
O       7.03      -4.57       7.95
O       6.09       4.50       8.15
O       4.77      -4.57       8.14
O       8.35       4.49       7.96
