47

C       1.46       2.07       3.54
B       6.38       1.45       2.22
C       2.93       2.13       3.57
C       3.83       1.65       2.57
C       3.53       1.02       1.26
C       3.70       2.65       4.63
C       3.18       3.35       5.84
C       5.07       2.41       4.28
C       6.26       2.62       5.00
C       7.50       2.30       4.44
H       4.14       1.48       0.47
C       6.18       3.16       6.38
H       2.47       1.14       1.03
C       5.85       2.31       7.44
H       3.79      -0.05       1.27
C       5.74       2.82       8.74
H       2.19       3.76       5.63
C       5.93       4.18       8.97
H       3.86       4.15       6.16
C       6.25       5.04       7.91
H       3.08       2.66       6.69
C       6.39       4.53       6.62
H       5.68       1.25       7.25
C       8.82       2.41       4.97
H       5.48       2.14       9.55
C       9.22       2.81       6.35
H       5.82       4.58       9.98
C       9.69       2.06       3.93
H       6.38       6.11       8.09
C      11.17       2.11       3.93
H       6.63       5.19       5.79
C       8.89       1.70       2.79
H      10.26       2.52       6.53
C       9.34       1.21       1.46
H       8.58       2.34       7.11
H       9.12       3.90       6.51
N       5.09       1.82       3.01
H       8.59       0.57       0.99
N       7.59       1.83       3.12
H      10.29       0.68       1.55
O       0.86       2.18       4.66
H       9.52       2.07       0.79
O       0.87       1.90       2.41
O      11.79       1.99       5.04
O      11.73       2.29       2.80
F       6.39       0.06       1.95
F       6.43       2.18       1.01
