16

C       4.93       4.93       0.70
C       6.64       6.64       0.70
C       4.93       4.93      -0.70
C       6.64       6.64      -0.70
O       4.98       4.98       3.47
O       6.59       6.59       3.47
O       4.98       4.98      -3.47
O       6.59       6.59      -3.47
C       5.78       5.78       2.90
C       5.78       5.78       1.40
C       5.78       5.78      -2.90
C       5.78       5.78      -1.40
H       4.27       4.27       1.26
H       7.30       7.30       1.26
H       4.27       4.27      -1.26
H       7.30       7.30      -1.26
