26

C      12.55       9.07       7.10
C      17.63       9.37       7.06
N      13.25       7.25       8.54
N      19.07       5.81       9.92
N      11.82       9.74       6.49
N      17.88      10.26       6.35
N      15.20       4.78      11.29
H      15.13       9.57       6.95
H      13.85       5.74       9.74
H      19.75       4.25      11.09
H      17.44       3.57      11.84
H      19.34       7.76       8.26
O      14.79       5.58      12.14
O      14.66       3.73      10.93
C      14.89       8.71       7.58
C      18.86       4.77      10.74
C      17.58       4.39      11.14
C      16.50       5.12      10.67
C      16.65       6.16       9.72
C      18.01       6.48       9.40
C      15.59       6.90       9.06
C      15.92       7.99       8.20
C      17.30       8.30       7.94
C      18.30       7.55       8.50
C      14.22       6.58       9.16
C      13.58       8.33       7.77
