10

O       2.20       7.48      18.43
O      -0.08       7.47      18.39
C       1.28      10.98      12.07
C       1.07       7.74      17.91
O       2.42      11.21      11.56
O       0.14      11.27      11.58
C       1.10       8.44      16.65
C       1.15       9.04      15.59
C       1.21       9.71      14.41
C       1.26      10.30      13.35
