34

H       3.56      13.39       4.53
H       3.99      12.13       6.42
H       5.64      11.73       5.90
H       6.27      11.35       2.93
H       6.15       9.82       4.66
H       2.07      12.12       3.29
H       2.06      10.89       5.25
H       2.36       9.45       4.31
H       5.17      10.36       1.99
H       6.59      13.18       4.10
H       5.54      14.53       3.60
H       5.79      14.19       5.33
H       3.96       8.36       3.06
H       5.70       8.09       2.95
H       4.86       7.71       4.46
H       1.42       9.94       2.21
C       4.15       9.50       6.40
C       4.46      12.78       4.38
C       4.59      11.78       5.56
C       5.29      10.86       2.95
C       2.82      11.31       3.23
C       4.21      11.96       3.08
C       4.15      10.36       5.14
C       5.19       9.84       4.12
C       2.75      10.45       4.52
C       4.23      12.89       1.88
C       5.66      13.73       4.34
C       4.91       8.42       3.63
C       2.36      10.51       2.03
O       5.28       9.20       6.89
O       3.02       9.17       6.88
O       5.37      13.15       1.36
O       3.12      13.39       1.51
O       2.90      10.48       0.93
