16

C       7.51       7.76      18.17
S       7.58       4.98      18.15
S       7.40       4.25      22.25
C       7.46       1.49      22.27
C       7.45       6.41      20.34
C       7.51       2.80      20.07
C       7.51       6.52      18.96
C       7.46       2.70      21.45
C       7.52       4.15      19.66
C       7.45       5.06      20.74
O       7.44       1.68      23.54
O       7.47       0.36      21.67
H       7.40       7.29      20.98
O       7.65       7.63      16.91
O       7.38       8.85      18.83
H       7.55       1.93      19.42
