20

N      13.02      -4.04       8.31
C       9.71      -3.76       9.71
N      12.89      -5.23       8.95
C       8.49      -3.71       9.89
C       7.16      -3.73      10.01
C       5.92      -3.83      10.03
C       4.59      -3.95      10.00
C       3.37      -4.09       9.91
H      11.83      -2.29       8.15
N      -0.15      -3.79       9.15
H      11.39      -6.09      10.19
H       1.35      -2.40       8.58
N      -0.14      -4.98       9.86
C      11.93      -3.29       8.56
C      11.04      -4.03       9.37
C      11.72      -5.24       9.60
C       1.11      -3.33       9.09
H       1.37      -6.13      10.80
C       1.12      -5.24      10.23
C       1.98      -4.21       9.77
