22

C       5.43       5.98      21.04
C       6.08       6.16      19.81
C       5.35       6.06      18.64
C       3.40       5.60      19.81
C       4.06       5.69      21.03
N       5.71       5.36      23.36
H       9.06       7.32      23.65
N       4.03       5.77      18.63
H       7.70       7.42      21.54
C       8.48       5.86      25.85
H       6.03       4.78      25.33
H       7.15       6.32      19.74
C       7.67       5.99      24.61
O       9.68       6.30      25.89
O       7.97       5.29      26.88
C       8.12       6.77      23.55
H       5.83       6.18      17.67
C       7.37       6.82      22.38
H       2.34       5.36      19.77
C       6.19       6.06      22.31
H       3.52       5.53      21.96
C       6.44       5.34      24.48
