30

C      13.90       2.20       3.16
C      13.91       4.71       7.83
C      13.22       4.65       5.42
H      14.21       6.31       6.38
H      13.60       5.11       4.50
C      13.92       3.27       5.61
I      11.09       4.38       4.93
H      15.91       2.58       6.15
I      16.89       5.58       8.02
I      16.53       4.53       4.54
H      12.54       6.11       6.88
H      13.07       2.98       8.89
H      11.91       3.88       7.90
Br      14.14       0.95       7.43
H      12.23       2.13       6.37
O      14.83       7.07      11.89
O      15.12       1.29       1.42
H      15.55       3.35       8.24
O      12.55       7.12      11.84
C      13.67       6.77      11.39
C      15.38       3.54       6.11
C      15.33       4.16       7.53
C      13.91       2.58       4.32
C      13.84       5.45       9.09
C      13.73       6.00      10.17
O      12.93       1.82       1.07
C      13.99       1.74       1.79
C      13.44       5.55       6.63
C      12.94       3.50       7.93
C      13.17       2.54       6.76
