16

C       1.46      -2.72       6.96
O       1.20      -5.71       4.85
H      -0.07      -3.68       5.81
O       3.39      -1.82       8.19
H       4.66      -3.85       7.23
O       3.64      -6.80       4.87
C       1.76      -4.79       5.65
O       0.95      -0.73       8.17
C       2.83      -2.74       7.39
O       5.27      -5.91       6.12
C       4.07      -5.89       5.69
O      -0.68      -1.62       6.92
C       0.52      -1.64       7.35
C       0.97      -3.73       6.12
C       3.62      -3.80       6.92
C       3.13      -4.81       6.08
