22

C       7.35       1.33      16.39
C       6.71       2.56      16.20
C       7.44       3.73      16.31
C       9.38       2.56      16.77
C       8.72       1.34      16.68
N       7.07      -0.99      17.01
N       8.75       3.74      16.60
H       3.72      -1.28      15.05
H       5.09       0.83      14.95
C       4.30      -3.48      16.51
H       6.75      -2.96      17.59
H       5.63       2.62      16.05
C       5.11      -2.25      16.38
O       3.11      -3.52      16.06
C       4.66      -1.18      15.60
H       6.96       4.70      16.19
O       4.82      -4.51      17.08
C       5.41      -0.01      15.55
H      10.44       2.60      17.01
C       6.59       0.06      16.31
H       9.27       0.41      16.84
C       6.35      -2.11      17.03
