13

N      -1.76      11.10       8.05
H      -3.52      10.01       7.54
O       0.40       9.42      10.47
H      -1.86       9.23       9.05
C       0.02      10.11       9.48
H      -3.03      11.28       6.39
O      -0.68       9.37       6.27
C      -1.96       9.46       6.17
O       0.85      10.67       8.69
C      -1.47      10.24       9.21
O      -2.64       8.77       5.38
C      -2.66      10.49       7.06
H      -1.96      10.61      10.12
