24

H      36.09      14.15       9.96
O      37.26       9.90       6.99
O      39.54      19.70      13.94
O      39.55       9.88       7.00
O      37.25      19.71      13.94
H      39.58      15.26       8.37
H      37.22      14.33      12.56
H      37.28      16.64       9.30
H      39.52      12.95      11.63
H      40.71      15.45      10.97
C      37.78      15.81       9.81
C      39.02      13.79      11.13
C      39.06      15.07       9.31
C      37.74      14.53      11.62
C      38.41      11.53       8.15
C      38.39      18.07      12.78
C      37.11      14.45      10.20
C      39.69      15.15      10.74
C      38.39      13.68       9.67
C      38.41      15.92      11.26
C      38.40      12.52       8.86
C      38.40      17.07      12.08
C      38.41      10.35       7.33
C      38.39      19.24      13.61
