10

C       0.47      11.76       3.59
C       0.47      12.76       2.87
O      -0.64      14.39       1.67
O       1.65      14.33       1.69
O      -0.59       7.99       6.19
O       1.70       7.94       6.03
C       0.49      13.91       2.01
C       0.55       8.43       5.81
C       0.52       9.64       5.04
C       0.49      10.66       4.35
