29

C       4.12      13.57       1.83
H       0.72      13.44       5.04
C       3.72      13.68       0.50
C       5.41      14.14       1.86
H       3.57      10.19       4.95
C       1.33      11.09       6.24
H       4.73      11.30       3.08
H       2.81      13.39       0.01
C       1.01       9.71       6.36
H       4.75      14.56      -1.18
C       0.77      11.68       7.38
S       1.51      15.08       2.93
H       6.09      14.29       2.70
N       4.72      14.28      -0.18
H       1.22       8.91       5.67
N       5.76      14.58       0.63
H      -0.23      10.70       9.01
N       0.32       9.48       7.48
H       0.78      12.70       7.73
C       3.40      12.98       2.97
N       0.18      10.69       8.08
C       2.26      13.57       3.56
O       2.57      16.09       2.80
C       1.61      12.96       4.63
O       1.01      14.64       1.59
C       2.06      11.74       5.14
O       0.44      15.43       3.85
C       3.19      11.14       4.57
C       3.85      11.77       3.51
