17

H       4.89       2.27       7.22
O       4.01       2.68       7.14
C       3.73       2.90       5.83
C       1.46       4.06       6.19
S       2.46       3.65       3.65
S       6.06       1.72       4.56
O       0.45       4.49       5.52
O       6.99       1.55       0.75
O       1.60       4.07       7.46
O       7.98       0.70       2.63
C       4.81       2.51       2.40
C       2.56       3.52       5.39
C       5.97       1.87       2.83
H       4.60       2.68       1.34
C       3.99       2.87       3.49
C       4.55       2.52       4.73
C       7.05       1.34       2.01
