20

H       4.92       5.36      21.42
H       0.91       5.37      18.46
H       0.72       6.14      20.82
H       5.11       4.58      19.06
C       3.90       3.50      14.93
C       3.36       4.00      16.17
C       1.78       5.37      19.11
C       1.68       5.80      20.43
C       4.05       5.36      20.76
C       4.15       4.93      19.45
C       3.02       4.91      18.61
C       2.81       5.80      21.28
C       2.68       6.19      22.63
C       3.16       4.43      17.29
C       2.52       6.49      23.80
C       2.08       6.81      25.13
O       1.26       6.01      25.66
O       2.51       7.91      25.65
O       4.70       4.25      14.31
O       3.56       2.30      14.58
