29

Cl      -4.33       3.68      14.94
H       0.65       5.62      18.49
H       0.72       3.90      18.11
H       1.37       5.08      16.96
H      -0.88       4.21      16.22
H      -0.95       5.94      16.50
H      -1.96       5.60      18.75
H      -1.70       3.86      18.63
H      -5.76       2.64      21.17
O      -4.70       0.47      15.96
O      -4.45       6.18      19.99
H      -5.84       0.60      19.75
O      -4.90      -0.83      17.83
H      -2.60       2.80      16.25
H      -3.72       5.53      17.01
O      -4.89       4.91      21.83
C      -4.90       1.53      18.04
C      -4.84       0.29      17.22
C      -4.70       5.07      20.58
C      -4.28       3.87      18.40
C      -4.78       3.87      19.70
C      -5.36       2.67      20.15
C      -1.94       4.76      18.03
C      -0.82       4.98      17.01
C       0.55       4.89      17.68
C      -4.37       2.73      17.59
C      -3.52       3.34      16.50
C      -3.34       4.60      17.45
C      -5.41       1.53      19.36
