16

C       5.59      -3.61      10.68
O       6.49      -1.58       9.86
H       6.57      -4.78      12.20
H       2.65      -4.41       9.16
C       2.56      -6.64      10.68
C       6.65      -2.55      10.68
C       5.70      -4.71      11.54
C       3.51      -4.48       9.82
H       4.42      -2.64       9.16
O       1.59      -6.49       9.86
O       7.62      -2.70      11.49
O       2.72      -7.61      11.49
H       4.79      -6.56      12.20
C       4.49      -3.50       9.82
C       4.72      -5.69      11.54
C       3.62      -5.59      10.68
