24

H      15.27      10.78      18.59
H      13.69       6.97      21.25
H      15.57       6.81      19.13
H      16.91       9.09      20.18
C      14.93       9.93      19.19
C      13.89      10.01      20.34
C      15.44       9.49      23.77
C      13.49       8.31      16.06
C      15.83       8.98      20.05
C      14.80       9.07      21.26
C      15.09       7.73      19.48
C      14.19       8.66      18.58
C      14.05       7.81      20.64
C      13.15       8.74      19.79
C      15.13       9.28      22.61
C      13.84       8.48      17.22
C      12.87       7.97      14.82
C      16.03       9.88      25.02
O      16.93       9.12      25.51
O      15.66      11.00      25.52
O      13.19       6.85      14.29
O      11.98       8.77      14.37
F      13.30      11.15      20.77
F      11.80       8.61      19.65
