26

N       4.51       0.87      10.73
O       8.04       1.64      14.24
O       9.12       0.52      12.57
H       4.06       0.38       9.97
H       4.24      -0.80      11.93
O       4.59       4.38      11.55
H       5.84      -0.03      12.14
H       4.39       0.74      12.82
O       4.24       3.87       8.93
O       7.43       1.45      10.72
O       2.85       2.08       8.92
H       5.19       5.06      11.19
H       5.56       4.30      13.48
H       7.92       3.88      14.86
H       7.44       5.42      14.09
H       8.45       4.24      13.21
H       8.15       0.79      10.76
C       8.19       1.36      12.99
C       3.83       2.78       9.42
C       5.19       3.12      11.44
C       4.56       2.22      10.60
C       6.33       2.89      12.31
C       7.32       1.93      12.01
C       4.76       0.16      11.96
C       7.61       4.35      13.91
N       6.41       3.76      13.36
