27

C       2.23       4.34       9.54
O       3.47       4.31       9.83
O       1.29       3.80      10.22
C       1.81       5.05       8.29
O      -0.71      10.24       1.04
C       2.74       5.81       7.55
O       1.48      10.72       1.35
C       0.48       4.96       7.87
H       3.77       5.88       7.87
C       2.27       6.47       6.42
H      -0.21       4.35       8.45
C       0.03       5.62       6.73
C       0.93       6.40       6.00
O       3.69       8.70       6.03
H      -1.01       5.52       6.41
C       0.65       7.23       4.81
O       4.17       6.75       4.55
H      -1.48       6.92       4.49
C       1.78       7.91       4.35
H       2.63       9.34       2.96
C      -0.57       7.44       4.16
H      -1.58       8.51       2.59
C       1.75       8.80       3.29
C      -0.63       8.34       3.10
C       0.51       9.03       2.67
C       0.42      10.07       1.60
S       3.21       7.51       5.33
