16

O       8.56       5.42      23.38
C       9.31       4.18      25.86
H       8.36       4.72      25.86
O       7.86       4.20      28.34
C      11.23       3.30      24.68
C       9.57       4.60      23.37
H      11.76       3.17      23.73
C      11.03       2.94      27.05
O      10.18       4.30      22.31
C       9.07       3.74      28.35
H      11.40       2.55      27.99
O       9.63       3.36      29.41
C      11.74       2.77      25.86
C      10.03       4.02      24.67
H      12.68       2.23      25.86
C       9.80       3.63      27.05
