32

O       9.76      12.93      11.19
O       9.17      21.16      16.33
H      11.63      21.49      12.49
H       7.30      12.60      15.03
H      10.22      16.45      12.13
H       8.71      17.64      15.39
H      10.22      13.67      10.76
H       8.71      20.42      16.76
C      10.42      22.94      14.36
C       8.51      11.15      13.16
C      10.45      21.44      14.30
C       8.48      12.65      13.22
C       9.73      20.65      15.20
C       9.20      13.44      12.32
C       9.55      19.28      14.92
C       9.38      14.81      12.60
C      10.09      18.70      13.74
C       8.84      15.39      13.78
C      10.88      19.52      12.89
C       8.05      14.57      14.63
C      11.07      20.86      13.17
C       7.86      13.23      14.35
N       9.84      17.40      13.37
N       9.09      16.69      14.15
Cl      11.58      18.84      11.45
Cl       7.35      15.25      16.07
O      11.52      23.57      14.26
O       7.41      10.52      13.26
O       9.25      23.43      14.41
O       9.68      10.65      13.11
O      10.13      15.51      11.72
O       8.81      18.58      15.80
