16

C      30.33      19.58      28.54
F      30.27      16.19      27.34
S      31.87      19.74      27.77
C      32.87      17.54      26.41
S      28.24      18.15      29.16
F      29.82      21.70      29.58
C      27.22      20.34      30.52
O      33.86      18.34      26.21
O      32.75      16.34      25.99
C      30.60      17.46      27.62
C      29.49      20.42      29.30
C      31.78      18.09      27.22
C      28.32      19.80      29.71
O      26.26      19.53      30.77
C      29.76      18.31      28.39
O      27.32      21.56      30.90
