20

C      12.86      15.47       3.05
C      14.89      14.39       4.78
C      13.98      16.21       3.44
C      13.77      13.63       4.39
C      14.96      15.69       4.28
C      12.78      14.15       3.56
C      14.67      17.56       3.31
C      15.79      16.96       4.26
H      13.68      12.61       4.77
H      11.92      13.54       3.28
H      15.00      17.81       2.30
H      14.11      18.41       3.72
H      15.89      17.46       5.23
H      16.78      16.86       3.81
C      15.94      13.83       5.67
C      11.80      16.02       2.17
O      15.78      12.62       6.07
O      16.91      14.61       5.98
O      10.82      15.26       1.88
O      11.98      17.23       1.76
