16

H       1.90       7.44       4.90
H       1.90      12.71       6.73
C       1.99       6.81       7.69
C       1.99      13.33       3.94
C       1.93       8.27       5.59
C       1.93      11.87       6.04
C       1.98       8.10       6.96
C       1.98      12.04       4.67
C       2.00      10.50       6.37
C       2.00       9.64       5.26
S       2.07       9.60       7.84
S       2.07      10.55       3.79
O       2.92       6.63       8.55
O       1.06       5.98       7.42
O       2.92      13.51       3.08
O       1.06      14.17       4.21
