22

H       4.58       6.46       2.44
H       6.87       7.93      -2.44
H       7.02       3.83       0.09
H       4.43      10.57      -0.09
H       7.35       5.62      -1.62
H       4.09       8.77       1.62
C       5.32       7.32       0.58
C       6.12       7.07      -0.58
C       5.17       6.29       1.54
C       6.27       8.10      -1.54
C       5.76       5.06       1.36
C       5.68       9.34      -1.36
C       6.56       4.81       0.20
C       4.89       9.58      -0.20
C       6.74       5.80      -0.74
C       4.71       8.60       0.74
C       5.54       3.98       2.39
C       5.90      10.41      -2.39
O       5.99       2.81       2.11
O       5.46      11.58      -2.11
O       4.94       4.30       3.45
O       6.51      10.10      -3.45
