20

H       7.11       4.18       1.71
H       6.02       5.14       3.70
H       5.98       0.29       5.99
H       4.35       0.27       5.26
H       5.38      -0.66       3.14
C       7.67       1.48       1.24
C       4.85       3.80       5.81
C       6.36       1.33       3.36
C       6.88       2.12       2.33
C       6.72       3.51       2.48
C       6.10       4.06       3.61
C       5.56       3.25       4.63
C       5.70       1.87       4.46
C       5.41       0.52       5.09
C       6.06      -0.09       3.80
O       7.29       1.60       0.02
O       3.96       3.05       6.32
O       5.16       4.98       6.24
O       8.68       0.83       1.64
F       7.18      -0.92       4.04
