20

H      23.20      11.00      13.64
H      22.55       5.27      10.79
H      20.17       9.11      10.80
H      25.59       7.15      13.64
O      24.60      10.53      14.41
O      25.80       8.62      14.40
C      24.79       9.32      14.02
C      20.96       6.94      10.43
O      21.14       5.72      10.05
O      19.95       7.64      10.04
C      23.82       8.72      13.10
C      21.94       7.55      11.33
C      22.69       9.47      12.65
C      23.06       6.79      11.78
C      21.76       8.89      11.78
C      24.00       7.37      12.65
O      22.45      10.75      13.03
O      23.30       5.51      11.40
O      20.72       9.67      11.40
O      25.04       6.59      13.03
