22

H       4.56      15.41      14.93
H       8.54      16.42      13.68
H       3.37      13.50      13.85
H       8.48      14.64      11.93
H       3.30      11.72      12.10
H       7.27      12.74      10.84
C       5.24      11.09      10.31
C       6.55      16.00      14.40
C       5.29      12.14      11.37
C       4.21      13.34      13.18
C       4.17      12.35      12.22
C       6.42      12.93      11.50
C       6.48      13.97      12.45
C       5.36      14.18      13.32
C       5.41      15.22      14.27
C       7.67      15.79      13.55
C       7.62      14.80      12.59
C       6.59      17.05      15.46
O       4.10      10.55      10.08
O       6.33      10.83       9.71
O       5.51      17.29      16.08
O       7.72      17.60      15.70
