26

C      14.39      13.97       1.41
C      13.37      15.15       1.37
C      12.46      15.02       0.12
C      11.73      13.66       0.19
C      12.76      12.50       0.20
C      14.19      13.07       0.16
C      14.37      13.92      -1.10
C      13.34      15.07      -1.14
O      16.25      12.10      -0.53
O      15.02      10.97       1.01
O      10.55      16.08       1.05
O      11.55      17.09      -0.72
H      15.42      14.36       1.41
H      14.26      13.37       2.32
H      12.74      15.15       2.27
H      13.90      16.11       1.34
H      11.10      13.64       1.08
H      11.06      13.57      -0.68
H      12.64      11.88       1.10
H      12.61      11.84      -0.66
H      15.40      14.32      -1.13
H      14.28      13.28      -1.99
H      12.70      14.99      -2.03
H      13.84      16.04      -1.20
C      15.23      11.95       0.22
C      11.44      16.16       0.14
