26

C      18.09      14.10       3.36
C      18.10       6.41      -1.95
H      18.76      14.92       3.08
C      16.71      13.22       5.01
H      18.76       6.38      -2.82
H      16.30      13.36       6.01
C      16.72       5.18      -0.54
C      17.83      13.03       2.51
C      17.83       7.59      -1.25
C      16.40      12.11       4.22
H      18.29      12.98       1.52
H      16.31       4.20      -0.31
C      16.40       6.31       0.21
H      15.72      11.34       4.59
C      16.96      12.02       2.94
H      18.29       8.53      -1.56
C      16.96       7.54      -0.15
C      16.68      10.89       2.04
H      15.73       6.24       1.06
C      16.68       8.78       0.58
N      17.53      14.19       4.58
N      17.54       5.24      -1.61
N      15.99       9.82       2.50
N      15.99       8.73       1.75
N      17.02      11.03       0.74
N      17.02       9.95      -0.01
