22

C      11.48      11.90       7.99
C      14.91      18.71       9.06
H      15.73      19.07       9.70
C      14.47      17.40       9.09
H      14.93      16.66       9.74
C      11.87      13.22       8.01
C      12.79      13.64       8.98
C      13.43      17.03       8.24
C      13.32      12.70       9.88
C      12.84      18.00       7.41
H      11.46      13.95       7.31
C      13.36      19.30       7.44
H      10.75      11.51       7.28
C      12.90      11.36       9.76
Br      14.58      13.23      11.17
Br      11.36      17.52       6.34
Br      13.62      10.04      10.90
Br      12.64      20.62       6.31
N      11.99      10.98       8.86
N      14.37      19.64       8.24
N      13.17      14.99       9.14
N      13.02      15.69       8.10
