32

C       6.92      10.08      22.84
C       6.64      11.33      22.03
C       6.03       4.93      20.12
H       6.33       9.61      20.17
H       6.61       5.40      22.78
C       6.27       3.68      20.95
O       7.41       9.21      27.12
O       8.40       7.18      27.40
O       5.43       5.79      15.86
O       4.55       7.86      15.56
H       7.29      11.41      21.15
H       5.60      11.37      21.69
H       6.84      12.22      22.65
H       6.33      10.08      23.77
H       7.97      10.09      23.19
H       7.30       3.65      21.34
H       5.59       3.62      21.81
H       6.11       2.79      20.34
H       4.99       4.93      19.74
H       6.65       4.91      19.21
C       5.19       6.97      16.23
C       5.64       7.32      17.55
C       6.40       8.70      20.77
C       6.68       8.77      22.13
C       6.55       6.31      22.19
C       6.26       6.24      20.83
C       6.19       7.47      20.11
C       6.75       7.54      22.84
C       7.04       7.57      24.22
C       5.90       7.44      18.73
C       7.29       7.69      25.41
C       7.71       8.04      26.73
