20

C       2.17       3.85      12.51
H       1.13       3.52      12.57
C       6.99       6.06       9.58
H       8.05       6.28       9.48
C       6.39       5.54      10.74
H       6.93       5.31      11.66
C       2.75       4.43      11.36
H       2.20       4.60      10.44
S       4.63       4.28      13.12
C       6.09       6.23       8.54
S       4.49       5.77       9.01
C       2.86       3.16      14.91
O       1.67       2.80      15.22
C       6.34       6.63       7.15
O       7.54       6.91       6.81
C       4.10       4.73      11.54
O       3.89       3.11      15.66
C       3.07       3.70      13.55
O       5.33       6.63       6.38
C       5.02       5.31      10.59
