28

C       2.53       5.36       7.49
H       0.45       4.81       7.60
C       0.81       6.79       8.39
C       4.71      10.88       9.29
C       3.75       9.92       9.04
C       6.07      10.57       9.14
H       5.18       5.21       6.95
O       8.76       9.93       8.53
O       8.23       7.80       9.09
O      -0.90       8.28       9.04
H       2.85       4.42       7.03
H       1.39       8.71       9.06
O      -1.47       6.12       8.62
H       2.70      10.16       9.20
H       6.84      11.30       9.39
H       6.89       6.89       7.51
H       4.41      11.87       9.64
C       4.11       8.63       8.57
C       5.49       8.33       8.36
C       3.11       7.60       8.32
C       3.51       6.35       7.75
C       4.89       6.15       7.44
C       5.84       7.08       7.74
C       1.75       7.78       8.62
C       1.21       5.56       7.81
C       6.47       9.31       8.72
C       7.93       8.99       8.76
C      -0.62       7.08       8.71
