18

H       1.37       8.04       3.62
H      -1.30       3.55       7.25
H      -1.46       4.75       8.36
H       2.77       5.25       8.43
H       1.32       4.31       8.75
H      -1.65       6.81       3.75
H      -1.04       8.28       4.21
H       2.87       7.96       4.58
C       1.26       6.86       5.25
C      -0.12       5.15       6.89
C       1.25       5.39       7.07
C      -0.15       6.65       5.08
N      -0.79       5.81       5.91
N      -0.79       7.29       4.02
N       1.94       6.19       6.20
N       1.88       7.73       4.44
N      -0.78       4.26       7.77
N       1.92       4.79       8.09
