38

N      -0.85      -3.81      11.28
N      -0.74      -2.74      10.41
N       2.45       2.87      25.13
H       2.45      -0.12      22.33
H      -0.24      -4.15      13.28
H       1.97       1.49      17.22
H       3.83      -1.12      15.19
H       4.49       3.38      20.85
H       3.79      -0.97      17.58
N       2.38       4.01      24.39
H       0.09       0.94      15.82
H       0.12      -0.81      10.55
H       2.80       4.54      22.39
C       2.80       3.76      23.14
C       3.15       2.41      23.02
C      -0.26      -3.46      12.44
C       0.24      -2.16      12.35
C       3.44       1.72      21.76
C      -0.08      -1.76      11.05
C       2.95       0.42      21.53
C       3.02      -0.13      20.26
C       3.53       0.56      19.14
C       4.09       1.83      19.42
C       2.93       1.90      24.32
C       4.05       2.40      20.69
C       2.79      -0.94      14.92
C       2.22      -1.59      13.82
C       0.16      -0.44      14.18
C       0.71       0.24      15.26
C       2.02      -0.03      15.67
C       3.34       0.00      17.79
C       2.48       0.56      16.92
C       0.88      -1.39      13.43
I       3.42       0.01      25.04
I       3.45      -2.91      12.73
I       5.04       2.95      17.89
I       2.18      -2.06      20.00
Br      -1.67      -0.08      13.75
