29

C       6.76       8.52      17.34
C       5.95       7.89      18.49
C       6.68       6.74      19.18
C       7.04       5.57      18.30
C       6.21       5.13      17.26
C       6.58       4.03      16.49
C       8.51       3.75      17.73
C       8.21       4.84      18.53
H       8.89       5.12      19.34
N       4.37      11.60      15.49
N       7.72       3.35      16.71
H       3.25      10.09      14.63
H       4.61       8.24      15.63
H       7.08      11.27      17.47
H       5.62      12.98      16.37
H       7.02       7.74      16.61
H       7.70       8.93      17.73
H       4.98       7.55      18.11
H       5.73       8.66      19.24
H       7.60       7.11      19.66
H       6.05       6.36      20.00
H       5.27       5.63      17.04
H       5.95       3.66      15.68
H       9.42       3.16      17.87
C       4.10      10.30      15.28
C       4.87       9.28      15.84
C       5.96       9.60      16.66
C       6.24      10.96      16.85
C       5.43      11.92      16.25
