20

C      24.15      -0.37      28.30
C      22.04       0.74      26.65
C      24.18      -0.46      26.91
C      22.02       0.83      28.07
C      23.16       0.08      26.13
C      23.04       0.29      28.86
C      24.96      -0.96      25.72
C      23.80      -0.35      24.83
H      22.98       0.38      29.94
H      25.95      -0.51      25.58
H      25.07      -2.06      25.66
H      23.22      -1.08      24.24
H      24.10       0.47      24.16
Cl      20.73       1.59      28.96
C      21.00       1.28      25.72
O      20.00       1.90      26.22
O      21.22       1.08      24.48
C      25.22      -0.93      29.18
O      25.09      -0.75      30.44
O      26.17      -1.54      28.59
