17

H       3.27       1.56       7.28
H       7.58       1.65       7.26
H       3.33      -0.93       7.40
O       6.62      -3.11       7.48
O       6.55       3.82       7.25
H       7.75      -1.88       7.43
O       4.26       3.80       7.25
C       5.46      -2.53       7.45
O       4.34      -3.12       7.44
C       5.41       3.24       7.25
O       7.91      -0.90       7.38
C       5.48      -1.05       7.41
C       6.70      -0.32       7.36
C       4.22       1.03       7.31
C       6.65       1.08       7.30
C       4.25      -0.35       7.37
C       5.42       1.75       7.27
