30

C       5.77      14.60       8.84
C       4.07      21.82      10.63
C       5.73      13.22       8.85
H       6.49      21.35       8.29
C       4.04      23.20      10.56
H       3.41      21.30      11.33
C       6.21      17.53       9.56
H       3.36      23.79      11.18
H       7.15      17.01       9.38
H       2.88      19.40      10.24
H       7.11      19.48       9.40
C       3.83      18.88      10.08
C       6.19      18.92       9.57
C       3.85      17.49      10.08
C       4.99      19.62       9.83
C       5.04      16.80       9.82
H       2.93      16.93      10.25
H       6.34      15.12       8.06
H       6.24      12.62       8.09
N       5.03      12.53       9.77
N       4.84      23.90       9.73
H       3.84      12.59      11.47
H       6.33      23.81       8.29
H       3.79      15.09      11.56
C       4.36      13.20      10.72
C       5.71      23.22       8.96
C       4.34      14.59      10.77
C       5.79      21.84       8.97
C       5.06      15.32       9.81
C       4.96      21.09       9.81
