28

H       9.05       6.46      12.43
H       8.81       6.87      14.86
H      12.49       4.71      15.53
H       8.17       6.75      19.40
H      11.67       4.61      22.18
H      12.03       4.84      19.73
C       9.63       5.28      23.65
C      10.91       5.17      11.11
C      10.89       5.36      12.59
C       9.80       6.08      13.12
C       9.66       6.31      14.48
C      10.62       5.80      15.38
C      11.74       5.11      14.86
C      11.87       4.90      13.48
C      10.46       5.90      16.78
C      10.30       5.90      17.99
C      10.12       5.80      19.39
C       8.94       6.27      20.00
C       8.74       6.11      21.37
C       9.72       5.50      22.18
C      10.90       5.06      21.55
C      11.11       5.19      20.19
Cl      13.27       3.99      12.99
Cl       7.25       6.73      21.98
O       8.51       5.44      24.23
O       9.81       5.37      10.49
O      12.01       4.86      10.55
O      10.70       4.92      24.24
