28

H       3.45       6.81       9.61
H      -3.44       6.81       9.61
H       3.45       8.21       5.72
H      -3.44       8.21       5.72
C      -2.83       7.91       6.57
C       2.83       7.11       8.76
C      -2.83       7.11       8.76
C       2.83       7.91       6.57
C      -1.42       7.09       8.82
C       1.43       7.93       6.51
C      -1.42       7.93       6.51
C       1.43       7.09       8.82
C      -0.71       7.51       7.67
C       0.71       7.51       7.67
C      -0.69       6.68       9.99
C       0.70       8.34       5.34
C      -0.69       8.34       5.34
C       0.70       6.68       9.99
C      -1.41       6.30      11.16
C       1.42       8.72       4.18
C      -1.41       8.72       4.18
C       1.42       6.30      11.16
N      -3.48       7.51       7.67
N       3.49       7.51       7.67
N      -2.03       6.00      12.11
N       2.04       9.02       3.23
N      -2.03       9.02       3.23
N       2.03       6.00      12.11
