20

H       1.24       7.54       7.48
H      -1.11       4.86      10.05
H       1.26       5.04      10.11
H      -1.07       4.10       6.49
H       1.30       4.01       6.65
H      -1.01       5.78       5.98
H       1.37       5.64       5.98
N      -1.16       5.50       8.05
N       1.40       5.53       8.08
H      -1.01       3.57       8.84
H       1.36       3.66       9.01
H      -1.05       7.13       9.36
H       1.31       7.29       9.23
H      -1.12       7.57       7.64
C      -0.67       6.87       8.36
C       0.87       6.91       8.30
C      -0.65       4.57       9.10
C       0.90       4.64       9.16
C      -0.63       5.07       6.73
C       0.91       5.03       6.76
