70

H       6.51       3.22       2.67
H       8.30       1.75       6.33
H      21.13      -3.81       2.10
H      19.02      -2.94       5.79
H      20.13       5.47      -2.75
H      20.69       1.88      -5.11
H       6.70      -3.77      -3.08
H       7.30      -1.68      -6.83
H      12.65      -0.64      -2.61
H      12.79       0.41       1.59
H      14.61       1.32      -2.09
H      14.46      -1.57       1.13
H       9.00      -0.01      -0.41
H      18.25       0.03      -0.18
H       8.44       1.68       1.20
H      19.07       0.68      -2.51
H       8.41      -1.89      -1.85
H      19.10      -1.86       0.88
C       6.78       2.96       3.69
C       7.84       2.17       4.17
C       7.69       2.22       5.57
C      20.80      -3.66       3.13
C      19.59      -3.15       3.62
C      19.73      -3.24       5.02
C      20.46       4.70      -3.43
C      19.93       3.42      -3.64
C      20.76       2.85      -4.62
C       6.67      -3.37      -4.09
C       7.45      -2.38      -4.70
C       6.97      -2.32      -6.02
C      12.15      -0.38      -1.68
C      12.89      -0.11      -0.51
C      12.23       0.18       0.68
C      10.83       0.25       0.71
C      10.09      -0.04      -0.43
C      10.76      -0.37      -1.61
C      14.37      -0.14      -0.50
C      15.11       0.67      -1.37
C      16.50       0.71      -1.25
C      17.17      -0.08      -0.31
C      16.42      -0.91       0.53
C      15.03      -0.94       0.44
C       8.86       1.48       3.42
C       9.01       1.33       2.05
C      18.75       2.86      -3.00
C      18.49       1.59      -2.52
C       8.53      -1.63      -4.09
C       8.85      -1.50      -2.75
C      18.46      -2.61       2.91
C      18.37      -2.03       1.66
N       6.63       2.98       5.89
N       6.06       3.44       4.72
N      20.93      -3.75       5.33
N      21.60      -4.03       4.16
N      21.72       3.73      -4.97
N      21.54       4.87      -4.22
N       5.98      -3.22      -6.18
N       5.79      -3.87      -4.99
N      10.73       0.36       3.13
N       9.93       0.86       4.03
N      10.18       0.63       1.90
N      16.73       2.93      -2.15
N      17.64       3.64      -2.74
N      17.23       1.66      -2.01
N      10.36      -0.42      -4.02
N       9.47      -0.94      -4.82
N       9.99      -0.75      -2.74
N      16.37      -1.98       2.68
N      17.21      -2.56       3.49
N      17.06      -1.65       1.54
