60

H       1.86      14.23       1.09
H       1.87       9.93       1.09
H       1.85      12.09       4.82
H       2.94      15.73       2.35
H       0.52      13.84       5.41
H       0.78      13.88      -0.84
H       3.20      10.29      -0.73
H       2.92       8.45       2.26
H       0.80      10.33       5.52
C       2.13      12.06      -4.94
C       1.86       5.78       5.98
C       1.59      18.38       5.97
C       1.91      12.08       0.93
C       1.86      13.29       1.64
C       1.81      13.30       3.04
C       1.82      12.08       3.73
C       1.86      10.86       3.04
C       1.90      10.87       1.64
C       2.29      16.93       3.98
C       2.37      15.73       3.28
C       1.75      14.58       3.77
C       1.05      14.69       4.98
C       1.01      15.89       5.67
C       1.62      17.07       5.20
C       1.35      13.08      -1.30
C       1.43      13.07      -2.69
C       2.10      12.08      -3.42
C       2.71      11.09      -2.63
C       2.67      11.08      -1.25
C       1.98      12.08      -0.55
C       2.44       8.43       3.24
C       2.45       7.23       3.95
C       1.86       7.09       5.22
C       1.27       8.26       5.73
C       1.28       9.47       5.05
C       1.86       9.58       3.78
N       0.30      15.89       6.97
N       2.94      18.10       3.35
N       0.78      14.20      -3.40
N       3.43       9.96      -3.28
N       3.09       6.11       3.20
N       0.64       8.36       7.08
O       0.56      19.10       5.81
O       1.12      11.55      -5.50
O       0.86       5.55       6.71
O       2.60      18.61       6.70
O       2.86       5.03       5.82
O       3.16      12.57      -5.48
O       0.58      16.78       7.76
O      -0.53      14.98       7.16
O       2.55      19.21       3.71
O       3.82      17.88       2.50
O       1.17      14.44      -4.54
O      -0.10      14.83      -2.78
O       3.14       9.72      -4.45
O       4.25       9.35      -2.59
O       4.19       5.72       3.57
O       2.47       5.74       2.19
O      -0.47       7.84       7.23
O       1.25       9.04       7.90
