16

C       3.39       7.00       2.41
C       3.64       6.90       0.00
O       6.31       7.85      -2.35
H       7.33       8.00       0.00
H       2.59       6.59       0.00
O       6.31       7.85       2.35
O       3.79       7.52      -3.53
C       5.64       7.53      -1.24
O       3.79       7.52       3.53
O       2.24       6.46      -2.30
C       5.64       7.53       1.24
C       6.29       7.67      -0.00
C       4.26       7.12      -1.23
O       2.24       6.46       2.30
C       4.26       7.12       1.23
C       3.39       7.00      -2.41
