15

H       3.65      13.77       2.54
C       4.06      15.70       3.35
C       3.36      14.55       3.24
C       6.93      15.81       1.18
N       7.00      17.06       1.65
H       7.61      15.37       0.45
O       1.51      13.21       3.70
C       5.95      17.22       2.52
N       5.88      15.16       1.72
H       5.70      14.13       1.62
H       5.78      18.15       3.05
C       2.16      14.28       4.05
O       1.81      15.03       5.01
C       5.23      16.03       2.59
H       3.71      16.46       4.05
