27

O       7.66       3.81      17.15
O       9.80       3.22      17.14
O       8.27       1.46      11.21
O       2.69       1.39       8.17
O       3.63       3.26       7.28
H      10.60       2.21      15.00
H      10.37       1.36      12.65
H       6.29       2.73      12.56
H       6.52       3.54      14.91
H       7.72       3.64       9.83
H       5.68       3.96       8.41
H       4.33       0.01       9.45
H       6.37      -0.31      10.86
C       8.67       3.34      16.53
C       8.56       2.91      15.11
C       9.66       2.31      14.46
C       9.54       1.84      13.16
C       8.32       1.98      12.48
C       7.23       2.61      13.10
C       7.36       3.06      14.41
C       7.12       1.66      10.45
C       6.96       2.87       9.76
C       5.83       3.04       8.97
C       4.87       2.02       8.87
C       5.07       0.81       9.55
C       6.20       0.62      10.34
C       3.65       2.24       8.05
