50

C      -3.27       5.84      17.08
N      -0.74       8.36      11.35
N       0.69      10.28      11.35
N      -0.75       8.37      10.03
N       0.70      10.27      10.03
O      -0.08       8.18       3.06
O       0.02      10.46       3.06
O      -0.08      10.45      18.31
O       0.03       8.18      18.31
H       1.81      10.44      13.60
H      -1.86       8.20      13.60
H       0.60      11.38       7.78
H      -0.66       7.26       7.78
H       0.56      11.39       5.27
H      -0.61       7.25       5.27
H       3.33      12.41      18.10
H       4.16      12.61      16.54
H       3.10      13.89      17.16
H       1.91      12.58      15.36
H       1.10      12.38      16.92
H       2.32      10.21      17.27
H       3.11      10.41      15.70
H      -3.38       6.23      18.10
H      -4.21       6.03      16.54
H      -3.15       4.75      17.16
H      -1.97       6.05      15.36
H      -1.15       6.26      16.92
H      -2.38       8.43      17.26
H      -3.16       8.23      15.70
C      -0.03       9.32       3.64
C      -0.03       9.32       9.40
C      -0.03       9.32      11.99
C       0.33      10.48       7.22
C      -0.38       8.15       7.22
C       0.31      10.48       5.83
C      -0.36       8.15       5.83
C      -0.03       9.32       5.13
C      -0.03       9.32       7.93
C      -0.03       9.32      17.74
C       1.03       9.96      15.55
C      -1.08       8.68      15.55
C       1.01       9.95      14.16
C      -1.06       8.68      14.16
C      -0.03       9.32      13.45
C      -0.03       9.32      16.24
C       2.18      10.63      16.26
C       2.03      12.16      16.37
C       3.22      12.80      17.08
C      -2.23       8.01      16.26
C      -2.08       6.48      16.37
