32

H      -2.28       9.84       4.54
H       1.94      18.92      12.60
H      -2.78      15.62       7.52
H       1.60      13.90       8.89
H      -2.21      14.40      10.01
H       1.02      15.14       6.40
H      -0.42      17.17       7.76
H      -0.78      12.36       8.65
C      -1.76      10.40       3.77
C       1.58      18.14      13.26
C      -0.69      11.90       2.57
C       0.77      16.31      14.15
C      -1.27      11.72       3.84
C       1.05      16.89      12.90
C      -1.50      14.55       9.19
C       0.32      14.98       7.22
C      -1.81      15.24       7.83
C       0.63      14.27       8.57
C      -1.31      12.60       4.93
C       0.71      16.40      11.62
C      -0.69      13.43       8.47
C      -0.50      16.09       7.95
C      -1.00      14.10       7.07
C      -0.17      15.41       9.35
C      -1.28      13.35       5.90
C       0.29      16.00      10.55
Br       0.12      13.45       1.90
Br      -0.00      14.64      14.51
N      -1.48       9.86       2.57
N       1.58      18.30      14.60
N      -0.82      10.80       1.80
N       1.09      17.14      15.15
