37

O      17.48       6.67      25.35
O      13.13       6.86      14.40
H      15.36       7.88      20.75
H      14.69       7.68      18.53
H      16.48       4.53      18.23
H      16.56       6.29      18.17
H      17.30       6.26      20.40
H      17.01       4.53      20.51
O      12.08       4.84      14.52
H      14.58       3.45      19.15
H      13.34       4.93      21.42
H      13.77       7.27      21.25
O      12.78       7.17      19.15
H      12.95       7.62      17.10
H      12.17       8.85      18.10
H      10.25       7.25      18.53
H      10.42       7.68      16.82
H      11.00       6.09      17.41
C      12.95       5.71      14.91
C      14.17       6.93      19.17
C      16.13       5.45      18.73
C      16.56       5.47      20.21
C      16.06       5.92      23.67
C      14.58       5.53      18.60
C      14.65       7.05      20.63
C      15.33       5.75      21.11
C      14.27       4.62      20.94
C      14.03       4.35      19.45
C      15.72       5.87      22.50
C      14.16       5.41      17.22
C      13.71       5.40      16.09
C      16.64       5.75      24.97
C      12.25       7.77      17.94
C      10.90       7.16      17.66
Cl      12.31       3.94      19.16
Cl      14.74       3.10      21.77
O      16.36       4.71      25.61
