36

C       0.76       3.20      14.62
C       2.28       4.48      16.07
C       0.29       5.57      15.11
C      -1.12       4.30      13.55
C      -0.61       4.46      12.12
C      -1.74       4.44      11.11
C       1.80       6.83      16.55
C       2.72       7.68      15.67
C       3.15       8.97      16.36
C       2.77       2.14      15.52
C       2.24       1.11      16.52
C       3.13      -0.13      16.53
H      -1.62       3.33      13.68
H      -1.82       5.11      13.81
H       0.09       3.66      11.86
H      -0.08       5.43      12.03
H       0.88       7.37      16.78
H       2.31       6.57      17.48
H       3.63       7.12      15.41
H       2.22       7.95      14.73
H       2.83       1.69      14.52
H       3.75       2.50      15.83
H       2.24       1.52      17.54
N      -0.01       4.35      14.50
N       1.43       5.57      15.90
N       1.90       3.31      15.42
H       1.21       0.81      16.28
O       0.47       2.15      14.05
O       3.30       4.56      16.75
O      -0.42       6.57      14.96
O      -2.68       5.32      11.32
O      -1.76       3.62      10.16
O       2.57       9.21      17.48
O       4.02       9.70      15.81
O       4.30      -0.03      16.09
O       2.58      -1.19      17.00
