34

C      11.05      11.62       2.37
C       7.32       7.85      -2.36
C      11.37      11.63       0.99
C      10.53      10.99       0.08
C       7.31       7.53      -0.98
C       7.94       8.38      -0.07
C       7.91       9.07      -2.76
C       8.52       9.91      -1.84
C       9.84      11.01       2.76
C       9.00      10.40       1.85
C       9.35      10.35       0.49
C       8.57       9.56      -0.49
S      12.81      12.41       0.20
S       6.55       6.09      -0.20
O       5.95       6.08      -3.13
O      12.81      13.01       3.14
H      10.84      10.95      -0.96
H       7.99       8.07       0.97
H       7.90       9.33      -3.81
O      11.67      11.76       4.65
H       9.57      11.03       3.82
H       8.07       9.95       2.20
O       7.18       7.22      -4.64
H       8.96      10.85      -2.19
H      14.35      12.29       1.72
H       6.68       4.54      -1.71
C       6.78       6.99      -3.44
C      11.90      12.17       3.45
O      14.06      11.75       0.94
O      12.86      11.90      -1.14
O      12.79      13.83       0.44
O       7.22       4.84      -0.94
O       7.05       6.03       1.14
O       5.12       6.09      -0.43
