26

O      24.06      16.42      14.44
O      25.22      15.40      16.11
O      19.46      11.51      14.25
O      20.50      10.38      15.92
H      24.36      13.17      13.97
H      23.23      14.26      13.16
H      21.65      12.54      13.08
H      22.79      11.46      13.91
H      20.07      13.97      14.40
H      20.04      13.89      16.16
H      21.65      15.69      14.52
H      21.64      15.58      16.28
H      24.38      13.03      16.52
H      23.27      14.03      17.45
H      21.67      12.33      17.37
H      22.78      11.33      16.44
C      24.24      15.49      15.30
C      20.37      11.37      15.13
C      23.34      13.58      14.02
C      22.29      12.44      13.96
C      21.40      12.49      15.23
C      20.71      13.86      15.29
C      21.76      14.99      15.36
C      23.19      14.39      15.33
C      23.36      13.45      16.52
C      22.30      12.32      16.47
