53

C       7.76       9.63       1.60
C       6.54       7.45       1.45
Si       6.72      13.38       3.11
C       7.02      11.79       6.96
H       8.72      11.54       1.77
C       8.23      13.89       6.97
C       9.48      14.02       2.62
H       4.49       8.98       2.34
C       8.93      16.36       1.21
H       6.86      15.90       1.51
C      10.26      15.98       1.43
H       4.55      11.40       2.89
C       2.86      15.77       1.99
H       8.16      15.03       5.15
C      11.37      16.86       0.93
H       6.04      11.27       5.12
C       4.64      14.24       1.41
H       8.64       9.12       1.22
C       3.53      14.99       1.03
H       6.71      10.88       7.48
C       1.71      16.60       1.56
H       8.87      14.60       7.49
H       9.72      13.14       3.21
C      10.54      14.80       2.13
C       4.42      15.02       3.69
H       8.73      17.28       0.68
H       5.16      13.64       0.65
C       3.30      15.77       3.32
O       5.44       6.78       1.49
H       3.17      15.00       0.01
H      11.57      14.52       2.32
O       9.37      13.08       9.37
O      11.06      17.74       0.05
H       4.76      15.03       4.72
O       7.64       6.87       1.16
H       2.75      16.36       4.06
C       8.14      14.39       2.40
O       7.80      11.43       9.60
C       6.65      11.64       2.41
O      12.53      16.65       1.40
C       5.11      14.26       2.73
O       1.41      16.69       0.32
O       1.01      17.23       2.43
C       7.85      12.71       7.61
C       6.57       8.90       1.77
C       7.79      10.99       1.91
C       5.41       9.55       2.23
C       8.38      12.38       8.99
C       7.88      15.57       1.69
C       5.46      10.90       2.54
C       7.82      14.12       5.66
C       7.05      13.18       4.96
C       6.64      12.02       5.64
