32

C     -13.79      12.26      10.52
C     -14.54      12.65       9.43
C     -15.44      15.73       5.71
C     -14.80      15.41       6.90
C     -14.81      14.09       7.38
C     -14.09      13.71       8.61
H     -15.47      12.09       6.97
H     -12.53      15.16       8.33
H     -14.12      11.43      11.15
H     -15.48      12.15       9.20
H     -15.44      16.75       5.33
H     -14.31      16.20       7.48
C     -16.84      12.27       4.72
C     -10.90      14.81      10.37
O     -17.66      14.39       3.20
O     -10.94      13.16      12.53
O     -12.12      11.22      12.47
H     -16.58      11.32       5.20
O     -16.47      16.33       3.22
H     -17.94      12.38       4.74
H     -16.57      12.22       3.66
H     -10.71      15.51       9.54
H     -10.01      14.17      10.50
H     -10.99      15.38      11.30
C     -16.80      15.19       3.71
C     -11.84      12.39      12.04
C     -16.13      14.75       4.97
C     -12.60      12.91      10.87
C     -16.16      13.41       5.43
C     -15.49      13.12       6.63
C     -12.15      14.01      10.09
C     -12.91      14.36       8.97
