13

C      15.01      11.43       7.84
H      16.34      15.20       7.40
C      16.17      13.09       7.09
N      16.24      10.97       7.61
H      14.30       9.76       8.95
N      14.92      12.75       7.52
H      13.31      11.25       9.11
C      16.59      14.44       6.64
H      17.67      14.46       6.46
N      16.98      12.03       7.14
H      13.21      10.27       7.64
C      13.90      10.63       8.42
H      16.06      14.72       5.72
