10

O       7.63      -3.30       9.84
C       7.46      -2.33       9.03
O       6.49      -2.15       8.22
C      12.18       2.39       9.02
C      11.16       1.37       9.02
O      13.14       2.21       9.83
C      10.29       0.51       9.02
O      12.00       3.36       8.21
C       9.34      -0.45       9.02
C       8.47      -1.31       9.03
