20

O       9.78       1.97       0.20
H      11.77       6.70       1.96
H      10.02       6.71      -1.96
O      11.17       8.90       1.10
O      10.62       8.91      -1.10
H      12.04       4.55       3.06
H      11.84       3.06       2.26
H       9.76       4.55      -3.06
H       9.96       3.06      -2.26
C      10.90       2.56       0.00
C      11.39       6.14       1.11
C      10.40       6.14      -1.11
C      10.90       8.32       0.00
C      11.42       4.74       1.11
C      10.37       4.74      -1.11
C      10.90       6.82       0.00
C      10.90       4.05       0.00
N      11.99       4.05       2.18
N       9.81       4.06      -2.18
O      12.02       1.97      -0.20
