20

C       8.49      12.88       4.51
C       8.87      10.20       3.64
C       7.56      12.30       3.64
C       9.80      10.78       4.51
H       9.00      14.40       5.49
H       8.36       8.67       2.65
H       5.97      12.51       2.65
H      11.39      10.57       5.50
O      11.60      12.03       6.26
C      10.59      12.73       5.87
O      10.41      13.95       6.25
C       6.77      10.35       2.28
O       5.76      11.05       1.89
O       6.95       9.13       1.89
O       8.25      14.16       4.89
O       9.11       8.92       3.26
O       6.52      13.08       3.26
O      10.84      10.00       4.89
C       9.62      12.12       4.96
C       7.74      10.95       3.19
