26

O       2.59      23.07      11.01
O       6.34      30.98       6.45
H       6.04      26.00      10.30
H       2.89      28.89       8.63
O       5.20      22.49      11.70
O       3.73      31.86       6.29
H       2.19      26.82       8.57
H       6.75      26.99       8.48
O       6.63      24.19      11.76
O       2.30      31.06       7.79
H       1.29      24.78       9.64
H       7.65      28.93       7.24
C       3.15      24.18      10.51
C       5.78      29.99       7.16
C       4.52      24.55      10.68
C       4.41      29.95       7.56
C       5.00      25.75      10.11
C       3.93      28.86       8.31
C       4.20      26.58       9.34
C       4.74      27.77       8.65
C       2.84      26.21       9.19
C       6.09      27.83       8.25
C       2.33      25.06       9.77
C       6.60      28.91       7.55
C       5.49      23.74      11.42
C       3.44      30.99       7.23
