24

C       0.99      -2.91       5.09
N       0.71      -3.17       8.63
H      -1.33      -3.99       3.05
C       1.20      -2.84       6.53
N       2.25      -2.31       7.19
H       0.36      -3.13       1.37
C       1.91      -2.54       8.48
N       3.87      -1.00      11.91
H       2.88      -2.02       4.49
C       2.66      -2.09       9.64
H       3.94      -0.74       8.54
C       3.65      -1.11       9.52
H       4.96       0.22      10.62
C       4.22      -0.58      10.67
H       2.74      -2.31      13.04
C       2.97      -1.99      12.02
H       1.60      -3.33      11.06
C       2.34      -2.55      10.93
C      -0.39      -3.54       3.37
N      -0.17      -3.46       4.68
C       0.55      -3.07       2.44
N       1.71      -2.52       2.83
C       1.93      -2.45       4.15
N       0.27      -3.35       7.38
