10

O       1.92       3.60       2.30
H       1.23       5.93      -0.80
O       2.75       3.63      -2.65
O       1.39       5.72       1.70
H       2.73       3.31      -0.16
O       1.84       5.56      -3.31
C       2.13       4.72      -2.39
C       1.80       5.02      -0.98
C       2.18       4.23       0.03
C       1.82       4.51       1.45
