27

H       0.84       2.29       3.52
H       1.65       3.35       5.63
H      -2.40       6.04       2.91
H       1.48       5.18       7.32
H      -1.87       6.87       5.20
H      -2.60       5.34       0.69
H      -1.45       4.92      -1.20
H      -1.61       3.18      -0.87
H      -0.23       4.09      -0.22
C      -0.27       7.24       7.32
C      -0.63       3.18       2.24
C      -0.22       6.11       6.35
C       0.89       4.12       5.54
C       0.79       5.13       6.47
C      -1.10       6.09       5.28
C      -0.97       5.13       4.25
C       0.03       4.10       4.40
C       0.14       3.13       3.39
C      -1.51       4.30       2.01
C      -1.71       5.20       3.05
C      -0.63       1.99       1.34
C      -1.31       4.14      -0.44
N      -2.07       4.48       0.76
O       0.84       7.56       7.87
O      -1.39       7.84       7.50
O       0.51       1.53       0.98
O      -1.77       1.50       1.03
