42

H       7.15      11.66       7.95
H       3.37      21.09       9.71
H       3.26      11.63       9.37
H       7.26      21.13       8.30
H       0.67      15.01      11.28
H       0.03      14.95       9.62
H      -0.42      13.69      10.79
H       1.31      12.84       9.19
H       1.92      12.84      10.85
H       3.07      15.05      10.41
H       2.47      15.05       8.78
H      10.50      17.80       8.04
H       9.86      17.74       6.39
H      10.94      19.06       6.87
H       8.61      19.91       6.82
H       9.21      19.92       8.48
H       8.05      17.70       8.89
H       7.46      17.70       7.25
C       6.34      13.65       8.33
C       4.18      19.11       9.33
C       6.30      12.25       8.29
C       4.23      20.50       9.38
C       4.11      12.25       9.08
C       6.42      20.50       8.59
C       4.03      13.65       9.14
C       6.50      19.11       8.53
C       5.19      14.36       8.76
C       5.33      18.39       8.90
C       5.23      15.77       8.81
C       5.30      16.99       8.85
C       7.54      14.34       7.98
C       2.99      18.42       9.69
C       2.79      14.37       9.59
C       1.61      13.50      10.02
C       0.41      14.34      10.45
C       7.74      18.38       8.08
C       8.92      19.25       7.65
C      10.12      18.42       7.21
N       5.20      11.59       8.67
N       5.32      21.17       8.99
N       8.53      14.90       7.71
N       2.00      17.85       9.95
