16

O      16.97       6.54      30.76
O      14.68       6.50      30.72
S      14.37      11.27      27.42
S      17.36       8.97      29.26
F      18.25      11.71      27.53
C      15.91      13.26      26.28
C      15.82       7.00      30.43
F      13.48       8.55      29.18
C      16.96      11.35      27.64
C      14.76       8.91      29.06
C      15.90      12.03      27.08
C      15.83       8.22      29.62
C      15.16      10.05      28.33
C      16.56      10.20      28.36
O      17.04      13.83      26.11
O      14.77      13.64      25.84
