10

H      -1.46       8.39       7.75
H      -1.36       5.31       7.61
O      -3.79       6.03       7.61
O       1.19       5.45       7.75
O       0.95       7.70       7.51
O      -3.99       8.29       7.82
C      -3.31       7.21       7.71
C       0.50       6.52       7.63
C      -1.84       7.37       7.70
C      -0.98       6.34       7.64
