22

O      13.54      11.18       3.92
O      13.50      10.98       1.66
O      15.15      20.21       4.21
O      14.87      20.05       1.97
C      13.59      11.66       2.74
C      13.80      13.13       2.59
C      14.06      13.91       3.71
C      14.27      15.30       3.59
H      14.10      13.44       4.69
C      14.20      15.91       2.29
H      13.91      15.56       0.18
H      13.57      13.10       0.44
H      14.35      17.77       1.19
H      14.99      18.12       5.42
C      13.94      15.09       1.16
C      13.75      13.74       1.31
C      14.40      17.31       2.17
C      14.69      18.08       3.28
C      14.77      17.48       4.57
C      14.57      16.12       4.72
C      14.92      19.55       3.14
H      14.62      15.66       5.71
