26

O       8.12       9.27       2.01
O      10.41       9.27       2.01
H      10.63       7.39       7.22
H      10.32      11.34       7.22
O       9.25       8.13      14.06
O       9.25      10.41      14.06
H       8.31       7.18       8.86
H       8.00      11.18       8.86
H       6.98       9.09       7.22
C       9.27       9.27       2.58
C       8.74       8.11       8.48
C       8.56      10.33       8.48
O      12.78       9.54       7.98
O      12.21       9.50      10.12
C      10.01       8.21       7.58
C       9.84      10.43       7.58
C       9.27       9.27       4.02
C       9.24       9.27      12.05
C       8.01       9.17       7.59
C       9.28       9.27       6.65
C       9.28       9.27       9.42
C      10.55       9.37       8.48
C       9.29       9.27       5.24
C       9.27       9.27      10.83
C       9.25       9.27      13.49
N      11.95       9.48       8.91
