61

C      10.38      15.45      11.33
N      11.41      19.22       9.70
H       7.61      12.67      13.85
C      10.44      16.59      12.14
H       8.37      14.93      13.11
C      10.81      17.83      11.62
C      11.09      17.97      10.24
H      11.39      12.97      10.73
C      11.03      16.83       9.42
H      10.52      10.77      11.60
C      10.71      15.59       9.96
H      10.23      16.51      13.21
C       9.09      26.50      11.81
H      10.89      18.70      12.27
C       9.65      25.34      11.30
H      11.23      16.92       8.36
H      10.64      14.72       9.30
C       9.09      24.09      11.60
C       7.94      24.10      12.41
H       9.53      27.48      11.63
H      10.53      25.43      10.66
C       7.40      25.30      12.85
C       9.68      22.84      11.11
H       7.45      23.17      12.70
C      11.02      22.77      10.69
H       6.47      25.33      13.41
C      11.59      21.59      10.25
H      11.65      23.66      10.76
C      10.83      20.41      10.19
H      12.64      21.56       9.94
C       9.48      20.46      10.60
H       8.87      19.55      10.54
C       8.92      21.65      11.04
H       7.87      21.66      11.31
C      15.63      18.27       3.08
H      16.36      17.52       2.79
C      15.05      18.28       4.34
H      15.29      17.48       5.04
C      14.14      19.30       4.69
H      13.22      21.12       3.92
C      13.89      20.28       3.71
H      14.28      20.92       1.68
H      15.00      18.19       7.04
C      14.49      20.19       2.46
H      13.80      18.13       9.20
C      13.47      19.33       6.00
C      14.03      18.67       7.12
H      10.61      20.46       7.49
C      13.37      18.65       8.34
H      11.76      20.45       5.30
C      12.13      19.29       8.48
N       7.98      26.49      12.57
C      11.58      19.98       7.38
C       8.47      12.78      13.20
C      12.24      19.98       6.16
C       8.90      14.04      12.77
N       9.06      11.65      12.78
C       9.96      14.14      11.85
C      10.09      11.73      11.91
C      10.56      12.95      11.43
N      15.34      19.20       2.15
