22

C       6.89       1.40      18.32
C       5.86       0.70      18.93
H      11.05      -1.25      16.26
H       6.87      -2.48      18.32
H       5.06      -1.25      19.41
H      11.05       1.25      16.26
H       6.87       2.48      18.32
H       5.06       1.25      19.41
O      10.27      -3.46      16.84
O       8.00      -3.50      16.78
O      10.27       3.46      16.84
O       8.00       3.50      16.78
C       9.13      -2.90      16.91
C       9.09      -1.42      17.11
C      10.19      -0.70      16.65
C       7.98      -0.72      17.69
C       6.89      -1.40      18.32
C       5.86      -0.70      18.93
C       9.13       2.90      16.91
C       9.09       1.42      17.11
C      10.19       0.70      16.65
C       7.98       0.72      17.69
