40

C      13.75      10.58       3.26
C      14.92      10.92       2.60
C      12.45       8.90       4.51
C      11.43       8.57       5.10
C      10.24       8.20       5.78
C      10.13       6.89       6.35
C       8.95       6.55       7.01
C       7.89       7.45       7.14
C       8.01       8.73       6.58
C       9.17       9.12       5.91
H      16.70       8.04       2.92
H      15.03      11.92       2.16
H       8.85       5.55       7.45
H       7.18       9.43       6.69
C      12.64      11.59       3.37
C      14.64       6.96       4.28
C       9.24      10.51       5.33
C      11.23       5.88       6.24
H      12.99      12.49       3.89
H      11.78      11.19       3.91
H      12.30      11.91       2.37
O       5.73       7.94       7.95
O       6.60       5.86       8.32
H      14.75       6.20       3.49
H       8.43      10.67       4.60
H      10.19      10.69       4.83
H       9.12      11.27       6.12
H      11.58       5.57       7.24
H      12.09       6.27       5.69
H      10.88       4.97       5.72
H      13.69       6.78       4.79
H      15.45       6.79       5.00
O      17.28      11.60       1.29
O      18.15       9.53       1.66
C       6.65       7.06       7.86
C      17.23      10.41       1.75
C      15.98      10.02       2.47
C      15.86       8.74       3.03
C      14.71       8.35       3.70
C      13.63       9.27       3.83
