36

C      10.77       5.72      17.27
C      10.84       5.02      18.49
C      10.84       3.61      18.48
C      10.69       5.02      16.06
C      10.69       3.61      16.07
C      10.77       2.90      17.27
C      10.77       1.41      17.27
C      11.98       0.70      17.27
C       9.56       0.70      17.28
C      10.77      -5.72      17.27
C      10.84      -5.02      16.06
C      10.84      -3.61      16.07
C      10.69      -5.02      18.49
C      10.69      -3.61      18.48
C      10.77      -2.90      17.27
C      10.77      -1.41      17.27
C       9.56      -0.70      17.27
C      11.98      -0.70      17.28
C      10.77      -7.23      17.27
C      10.77       7.23      17.27
Cl      10.55       5.88      14.58
Cl      10.60       2.74      14.59
Cl      10.98       5.88      19.97
Cl      10.93       2.74      19.96
Cl      13.46       1.57      17.26
Cl      13.46      -1.57      17.29
Cl       8.07       1.57      17.29
Cl       8.07      -1.57      17.26
Cl      10.60      -2.74      19.96
Cl      10.55      -5.88      19.97
Cl      10.93      -2.74      14.59
Cl      10.98      -5.88      14.58
O      11.78      -7.79      17.80
O       9.75      -7.79      16.75
O       9.75       7.79      17.80
O      11.78       7.79      16.75
