32

C       3.56       3.58       3.96
C       4.13       2.57       4.74
C       5.23       1.87       4.22
C       5.70       2.21       2.95
H       0.76      -0.09       8.30
H       2.11      -0.43       9.35
H       3.18      -1.88       7.70
H       1.47      -2.33       7.71
H       1.09      -0.80       5.74
N       2.46       2.05       8.64
H       2.99       0.20       4.58
N       5.13       3.18       2.21
H       3.87       4.40       6.67
H       2.90       4.04       8.96
O       2.36      -2.39       5.23
H       3.65       4.61       2.05
O       4.47      -0.71       5.74
H       2.71       4.15       4.34
H       5.70       1.07       4.78
H       6.54       1.69       2.49
H       2.07      -2.24       4.31
H       4.38      -1.61       5.35
C       2.51       0.98       7.81
C       1.85      -0.28       8.30
C       2.17      -1.52       7.47
C       2.10      -1.19       5.99
C       3.15      -0.13       5.63
C       3.10       1.08       6.53
C       3.59       2.33       6.10
C       3.51       3.42       6.97
C       2.96       3.23       8.23
C       4.08       3.85       2.70
