34

C       8.59       6.86      18.02
C       8.60       7.70      19.31
C      10.05       1.86      10.83
C       9.14       0.78      11.38
C       8.82      -0.29      10.34
N       7.97       5.79      13.77
N      10.79       5.50      13.86
H       7.51       8.42      16.98
H       9.25       8.37      16.56
O       7.95       7.02      15.63
H       7.76       6.13      18.06
H       9.52       6.30      17.92
H       8.81       7.06      20.18
H       7.63       8.19      19.47
H       9.37       8.48      19.28
O      10.42       2.80      11.87
H      10.98       1.42      10.43
H       9.56       2.40       9.99
H       9.62       0.33      12.26
H       8.21       1.25      11.75
H       8.33       0.14       9.46
H       8.15      -1.06      10.76
H       9.74      -0.80      10.01
H      10.62       4.56      10.76
F      10.80       6.74      15.77
H       8.11       4.99      10.71
H       7.87       3.47      11.63
C       8.67       5.14      12.84
C       8.69       6.37      14.76
C      10.11       6.20      14.77
C      10.03       4.98      12.87
C      10.06       4.13      11.61
C       8.47       4.38      11.55
C       8.38       7.76      16.81
