16

S      11.14       7.37      12.92
S      14.73       8.93      11.46
C      10.13       9.56      14.27
O      10.21      10.77      14.65
C      12.40       9.66      13.03
O       9.18       8.73      14.51
C      11.24       9.03      13.46
C      13.46       6.64      11.36
C      12.65       7.51      12.12
C      13.21       8.79      12.26
C      14.63       7.27      10.93
C      15.74       6.75      10.12
O      16.69       7.58       9.87
Cl      12.87      11.27      13.34
Cl      13.00       5.03      11.04
O      15.66       5.54       9.74
