36

C       8.79       7.38       8.25
H      14.02      10.31      16.66
C      10.63       8.63      15.74
H       7.91       6.79       8.00
C      11.06       8.88       8.93
H       9.70       8.14      15.46
C      12.73       5.13      13.07
H      11.95       9.44       9.20
C      13.04       5.31      11.59
H      11.75       4.66      13.21
C      11.87      10.33      16.91
H      13.94       5.92      11.45
C       8.97       8.66       7.76
H      13.49       4.46      13.49
C      10.63       9.73      16.57
H      13.24       4.32      11.17
C      10.11       9.43       8.09
H      11.88      11.18      17.59
C      11.74       6.96      14.38
H       8.23       9.07       7.07
C      11.95       7.08      10.28
H       9.70      10.12      16.97
N      12.78       6.37      13.83
H      10.23      10.43       7.69
N      11.94       5.89      10.83
H      10.76       6.50      14.20
H      12.83       7.70      10.46
H      13.69       6.82      14.02
H      11.10       5.32      10.64
C      11.83       8.11      15.20
O      14.22       8.30      15.00
C      10.91       7.58       9.46
O       9.55       5.61       9.66
C      13.09       8.74      15.52
C       9.73       6.80       9.14
C      13.06       9.85      16.41
