20

H       0.41       3.74      10.21
H      -1.32       4.33      11.87
H      -3.47       5.40      11.15
H      -3.78       5.97       8.73
H      -3.16       6.08       6.64
H      -2.58       5.60       4.07
H      -2.02       7.21       4.58
C      -1.87       5.20       8.12
C      -0.67       4.52       8.52
C      -0.50       4.25       9.89
C      -1.49       4.57      10.82
C      -2.70       5.17      10.42
C      -2.87       5.48       9.08
C      -2.15       5.65       6.78
C      -1.72       6.15       4.49
C      -0.56       6.04       3.52
N      -1.33       5.62       5.79
O       0.26       4.15       7.63
O       0.53       5.51       3.96
O      -0.66       6.47       2.35
