20

H      13.82      14.90      19.59
H       9.82      12.41      21.09
N      12.32      14.06      17.59
N      11.23      13.40      23.08
H      11.79      13.52      16.92
H      13.26      14.35      17.34
H      11.94      13.65      23.75
H      10.54      12.70      23.33
O       8.98      11.81      19.02
O      10.14      12.57      17.22
C       9.96      12.45      18.49
C      13.72      14.81      22.18
O      13.54      14.68      23.45
O      14.72      15.41      21.65
C      10.93      13.10      19.40
C      12.71      14.21      21.28
C      12.07      13.82      18.93
C      11.55      13.51      21.75
C      12.93      14.35      19.90
C      10.71      12.97      20.77
