13

S       4.22      10.31       4.61
O       6.12       6.87       4.56
C       5.42       9.09       4.40
C       5.13       7.66       4.64
C       6.65       9.64       4.05
H       7.44      11.68       3.70
O       3.92       7.34       4.92
O       3.79      13.28       4.71
C       6.60      11.04       3.95
H       7.53       9.03       3.89
C       4.98      12.99       4.33
O       5.90      13.82       4.05
C       5.34      11.56       4.24
