13

C       8.02      10.48       1.23
H       7.35       9.71       1.62
C      10.08      11.53       1.35
O       6.84      13.37      -1.63
N       9.23      10.58       1.80
H      10.46      13.14      -0.04
C       9.76      12.39       0.31
C       8.09      13.22      -1.38
O       8.98      13.87      -2.03
C       8.49      12.29      -0.29
C       7.61      11.32       0.19
H       6.61      11.21      -0.23
H      11.05      11.58       1.85
