28

O      -2.51      26.10       8.34
O      -4.75      26.30       7.97
H      -5.74      16.22       2.16
H      -1.52      15.80       2.92
H      -1.52      24.05       7.47
H      -5.74      24.47       6.71
O      -4.75      14.17       1.29
O      -2.51      13.97       1.66
C      -3.63      25.69       7.88
C      -3.63      14.57       1.75
C      -3.63      15.88       2.47
C      -2.44      16.37       3.02
C      -2.45      17.59       3.69
C      -3.63      18.36       3.84
C      -4.81      17.82       3.26
C      -4.82      16.61       2.59
C      -3.63      19.60       4.52
C      -3.63      20.67       5.11
C      -3.63      21.90       5.79
C      -2.45      22.44       6.37
C      -2.44      23.66       7.04
C      -3.63      24.39       7.16
C      -4.82      23.89       6.61
C      -4.81      22.68       5.94
Br      -6.44      18.77       3.40
Br      -0.82      18.21       4.42
Br      -6.44      22.05       5.21
Br      -0.82      21.49       6.23
