36

H      10.87      18.56       7.67
N       6.34      18.97       4.87
N      11.33      18.39       5.12
H       6.26      18.53      11.84
H       6.55      18.85       7.45
N       5.76      18.36      14.38
H      10.57      18.86      12.13
N      10.74      18.97      14.71
O       7.02      18.90      16.65
O       9.23      18.33      16.75
O      10.01      18.94       2.86
O       7.83      18.29       2.82
O      11.57      17.28       4.64
O      12.12      19.33       5.22
O       6.16      20.07       4.34
O       5.53      18.04       4.92
O      10.92      20.08      15.23
O      11.55      18.04      14.69
O       5.51      17.23      14.83
O       4.97      19.30      14.29
C       8.16      18.63      16.14
C       8.90      18.63       3.40
C       8.84      18.67       4.90
C       9.98      18.58       5.71
C       9.94      18.62       7.10
C       8.70      18.70       7.75
C       7.53      18.78       6.97
C       7.62      18.78       5.59
C       8.61      18.71       9.16
C       8.53      18.71      10.38
C       8.43      18.70      11.79
C       9.59      18.78      12.59
C       9.47      18.78      13.97
C       8.24      18.66      14.64
C       7.11      18.56      13.81
C       7.18      18.60      12.43
