18

O      11.67      11.93      12.94
O      13.83      11.53      12.73
O      10.40      10.62      15.01
O       9.24       8.74      14.45
C      10.25       9.53      14.39
S      11.41       7.36      13.21
S      14.76       9.04      11.37
C      15.81       6.78      10.15
C      12.43       9.73      12.96
C      13.70       6.64      11.58
C      11.36       9.06      13.53
O      16.69       7.61       9.72
C      14.75       7.34      11.01
C      12.87       7.52      12.31
O      15.75       5.53       9.91
H      13.56       5.57      11.45
C      13.32       8.86      12.28
N      12.65      11.17      12.89
