56

C       3.26       1.95       2.15
C       3.40      -1.95      -2.16
H       5.25       3.00       4.74
H       1.40      -2.99      -4.74
C       2.16       2.80       2.40
C       4.50      -2.79      -2.41
H       5.22       1.38       2.84
H       1.43      -1.38      -2.85
C       2.16       3.68       3.48
C       4.50      -3.66      -3.50
H       1.30       2.78       1.73
H       5.36      -2.76      -1.75
C       3.28       3.74       4.33
C       3.39      -3.73      -4.35
H       1.31       4.32       3.68
H       5.36      -4.31      -3.70
C       2.14       0.22       0.68
C       4.53      -0.21      -0.69
H       1.30      -1.28      -0.57
H       5.37       1.28       0.58
C       2.21      -0.73      -0.34
C       4.46       0.74       0.33
C       3.39      -0.97      -1.05
C       3.27       0.98       1.04
C       0.80      -0.34       2.57
C       0.16      -1.70       2.34
C      -0.10      -2.43       3.66
C       6.19       0.65      -2.20
H       0.18       0.27       3.23
H       1.79      -0.44       3.05
H      -0.78      -1.56       1.79
H       0.82      -2.31       1.69
H       0.84      -2.58       4.22
H      -0.55      -3.41       3.49
H      -0.78      -1.85       4.30
H       7.29       0.62      -2.14
H       5.86       1.62      -1.79
O       4.42       4.99       5.98
H       5.96      -0.57      -3.94
H       4.61       0.52      -3.65
O       2.25      -4.98      -5.99
H       6.08       2.50      -4.29
H       5.98       1.32      -5.61
H       7.43       1.38      -4.59
O       2.15       5.06       5.94
O       4.51      -5.05      -5.95
O       0.94       0.41       1.34
O       5.73      -0.42      -1.34
C       3.28       4.67       5.50
C       3.38      -4.66      -5.51
C       5.71       0.45      -3.63
C       4.39       2.93       4.08
C       2.27      -2.93      -4.09
C       6.33       1.47      -4.58
C       4.37       2.04       3.01
C       2.29      -2.04      -3.02
