26

N       5.49       3.44      13.12
N       5.64      -3.51      13.17
C       6.57      -1.44      12.39
C       7.49      -0.69      11.56
H       6.95       3.41      11.66
H       8.09       1.24      10.87
H       4.07       3.39      14.62
C       5.62       0.67      13.22
C       5.66      -0.74      13.23
H       7.15      -3.47      11.78
H       4.13      -3.48      14.59
H       3.24      -1.31      15.63
O       8.43      -1.30      10.79
O       3.08       1.23      15.90
H       8.57      -2.22      11.06
H       3.27       2.18      15.99
C       6.34       2.79      12.32
C       6.47       1.39      12.33
C       7.40       0.69      11.52
C       4.71       2.77      13.99
C       4.73       1.37      14.09
C       3.90       0.62      15.00
C       4.80      -2.86      13.99
C       4.76      -1.46      14.07
C       3.90      -0.76      14.96
C       6.51      -2.84      12.40
