16

O       2.75       4.83       1.46
C       1.61       2.30       5.63
C       1.56       3.69       3.13
F      -0.77       3.11       2.99
C       2.76       2.91       5.10
C       0.41       3.08       3.66
H       3.66       4.04       3.51
H      -0.48       1.95       5.25
C       1.57       1.53       6.91
C       2.74       3.58       3.89
C       0.43       2.41       4.87
O       0.42       1.15       7.30
C       1.60       4.46       1.85
F       3.94       2.88       5.77
O       2.68       1.29       7.49
O       0.49       4.70       1.27
