12

C       0.58      -3.02      16.45
O      -0.36       4.49      10.15
C       0.78       4.05      10.50
O       1.93       4.45      10.10
C       0.60      -1.93      15.51
O       1.71      -3.43      16.85
C       0.69       0.05      13.88
C       0.73       1.00      13.10
C       0.76       2.03      12.24
C       0.78       2.97      11.45
C       0.64      -0.98      14.73
O      -0.57      -3.44      16.81
