24

N       7.84       6.27      10.31
N      10.08       9.00      10.51
O      12.45       8.39       9.43
H       6.84       6.13      10.14
H       7.96       5.80      12.38
H       9.51       5.80      11.49
O       5.51       7.02       9.25
H       8.36       4.47      11.26
H      11.09       9.16      10.38
O       5.26       9.21       8.73
H       9.87       9.22      12.62
H       8.36       9.34      11.67
H       9.52      10.68      11.65
O      12.72       6.27       8.66
H       7.83       9.36       8.95
H      10.16       6.09       8.81
C      11.99       7.22       9.11
C       5.98       8.22       9.08
C      10.56       6.99       9.27
C       7.40       8.42       9.29
C       9.70       7.83       9.93
C       8.24       7.50       9.89
C       8.45       5.56      11.42
C       9.43       9.59      11.67
