20

H       0.18       8.12      14.23
H       0.50       5.64      14.17
H      -0.87       5.53      18.28
H      -1.14       8.01      18.15
H      -0.39       1.15      14.28
H      -0.73       3.64      14.21
H       0.84       3.79      18.24
H       1.09       1.30      18.14
N      -0.50       8.15      16.19
N       0.36       1.15      16.20
C      -0.05       7.50      15.09
C       0.13       6.12      15.07
C      -0.15       5.38      16.23
C      -0.61       6.06      17.36
C      -0.78       7.44      17.30
C      -0.13       1.79      15.12
C      -0.31       3.16      15.10
C       0.02       3.92      16.23
C       0.54       3.25      17.35
C       0.69       1.87      17.29
