16

C       8.32      12.79       4.51
C       8.63      10.14       3.66
C       7.45      12.25       3.55
C       9.62      10.74       4.46
C       6.56      10.29       2.19
O      10.70      13.92       5.75
O       5.34      10.63       2.33
Br       7.89      14.47       5.28
Br       8.72       8.27       3.35
Br       6.17      13.41       2.74
Br      11.20       9.75       4.82
O       7.00       9.48       1.32
O      10.99      11.91       6.75
C      10.46      12.68       5.89
C       9.45      12.06       4.94
C       7.56      10.90       3.15
