33

H       2.41       1.37       8.03
H       5.54      -1.83       9.29
H       3.48      -0.72       8.89
H      10.12      -2.35       4.37
H       6.84       0.36       3.95
H       8.89      -0.61       3.04
H       7.50      -2.70       9.79
H       9.92      -3.11       9.61
H       9.52      -1.39       9.90
H       9.93      -1.96       8.27
C       8.80      -2.22       6.04
C       9.36      -3.54       6.48
C       6.99      -0.55       5.90
C       7.71      -1.55       6.66
C       3.51       3.21       6.53
C       3.94      -0.15       8.08
C       4.01       1.80       6.66
C       9.27      -1.82       4.79
C       8.57      -0.86       4.05
C       7.43      -0.29       4.58
C       9.42      -2.23       9.19
C       5.79       0.08       6.45
C       5.20      -0.57       7.59
C       5.95      -1.52       8.33
C       7.24      -1.87       8.00
C       5.17       1.30       6.05
C       3.35       1.00       7.62
Br       5.85       2.42       4.63
N       8.01      -2.54       8.93
O      10.62      -3.72       6.33
O       8.53      -4.42       6.85
O       4.36       4.12       6.75
O       2.26       3.38       6.33
