26

C      18.23      15.88      14.76
C      18.23      16.85      15.75
C      18.44      18.40      18.51
C      19.90      18.09      18.35
C      17.33      13.76      13.78
C      17.33      14.80      14.83
C      17.33      16.80      16.83
C      17.33      17.83      17.86
H      15.74      13.89      15.96
H      15.73      15.65      17.72
H      14.23      19.27      18.25
H      14.61      17.97      17.10
H      14.27      17.59      18.79
N      16.64      19.37      19.34
N      18.01      19.31      19.41
H      18.92      15.93      13.92
H      18.92      17.69      15.68
H      20.43      18.21      19.31
H      20.04      17.06      18.00
H      20.38      18.76      17.62
O      16.47      12.81      13.88
O      18.18      13.86      12.83
C      16.42      14.74      15.90
C      16.42      15.72      16.88
C      16.21      18.48      18.43
C      14.76      18.32      18.13
