36

Cl       2.28      14.97      23.67
Cl      -2.28      10.37      34.69
H      -1.29      15.96      27.86
H       1.29       9.38      30.50
H       1.75      13.55      25.97
O      -0.79      17.70      23.23
H      -1.75      11.79      32.39
O       0.79       7.64      35.13
O       1.47      17.82      23.30
O      -1.47       7.52      35.07
H       0.42      11.92      26.85
H      -0.42      13.42      31.51
H       0.24      10.25      28.66
H      -0.24      15.08      29.71
C       0.35      17.42      23.72
C      -0.35       7.92      34.64
C      -0.52      16.68      26.00
C       0.52       8.66      32.37
C      -0.59      15.77      27.05
C       0.58       9.56      31.31
C       0.21      14.62      27.05
C      -0.21      10.72      31.31
C       1.10      14.42      25.99
C      -1.10      10.92      32.38
C       1.17      15.34      24.94
C      -1.17      10.00      33.42
C       0.35      16.48      24.90
C      -0.35       8.85      33.47
C       0.25      12.26      27.88
C      -0.26      13.08      30.48
C       0.15      11.31      28.90
C      -0.15      14.02      29.47
C      -0.11      11.71      30.22
C       0.10      13.63      28.14
Cl      -1.53      18.08      26.11
Cl       1.53       7.26      32.26
