37

H      -1.11       5.66       2.50
H       0.39       1.26       2.72
H       1.22      -1.07       2.85
H      -2.41      -2.47       0.99
H      -3.24      -0.14       0.85
H      -3.51       4.75      -1.00
H       4.09      -1.07       1.13
H       5.28      -1.58      -0.09
H       3.93      -0.53      -0.55
H       3.47      -2.89      -1.29
H       2.30      -2.38      -0.08
H       3.64      -3.52       1.71
H       4.80      -4.08       0.48
H       0.22      -6.95       0.17
C      -1.74       5.68       1.61
C       1.51      -5.18       0.69
C       0.25      -0.86       2.41
C      -0.50      -1.93       1.87
C      -1.80      -1.65       1.37
C      -2.26      -0.35       1.29
C      -1.45       0.73       1.71
C      -0.22       0.44       2.34
C       0.10      -3.20       1.67
C      -1.81       2.07       1.44
C      -2.02       3.23       1.12
C       0.69      -4.19       1.27
C      -2.97       5.21      -0.18
C      -2.22       4.59       0.85
C       3.74      -3.82       0.65
C       3.36      -2.61      -0.23
C       4.21      -1.38       0.08
C       2.88      -5.01       0.39
C       1.18      -6.44       0.16
N      -2.18       6.82       1.07
N      -2.95       6.55      -0.03
N       3.31      -6.10      -0.28
N       2.27      -6.99      -0.42
