15

C       8.02       4.52      12.65
C       6.81       5.25      12.61
N       6.69       3.80      14.26
O       8.28       7.68       8.78
C       7.58       6.45      10.70
H       9.57       5.98      10.03
C       8.81       5.74      10.77
N       7.89       3.64      13.70
C       6.57       6.22      11.63
N       6.02       4.77      13.63
O       6.16       7.92       9.49
C       9.05       4.77      11.73
H       5.62       6.75      11.59
C       7.35       7.42       9.58
H      10.00       4.24      11.78
