21

C       1.77       7.92       4.88
H       3.85       8.02       4.51
C       2.06       7.86       6.40
H       4.02       7.97       1.06
C       2.01       6.45       6.98
H       4.98       7.93       2.50
C       3.15       5.54       6.59
C       2.88       7.79       2.73
N       2.97       7.70       4.09
N       4.07       7.76       2.05
C       1.12       9.28       4.62
O       1.91      10.29       4.51
O      -0.14       9.36       4.60
O       2.85       4.27       6.58
H       1.02       7.16       4.63
O       4.29       5.99       6.36
H       3.03       8.33       6.60
H       1.28       8.46       6.90
O       1.78       7.83       2.12
H       1.05       5.97       6.74
H       2.04       6.52       8.08
