40

C      -0.99       4.33       3.51
C      -6.13       4.61       4.02
C      -1.09       0.40       5.13
C      -6.04       1.13       6.46
H      -5.69       6.89       2.82
H      -1.43       6.57       2.23
H      -5.65      -1.24       7.50
H      -1.48      -1.75       6.56
O      -4.68      -3.34       8.31
O      -2.45      -3.56       7.89
O      -2.44       8.58       1.27
H      -5.69       2.86       3.33
O      -4.68       8.78       1.65
H      -1.43       3.97       5.35
H      -2.07       0.92       3.55
H      -5.05       2.74       6.87
O      -0.67       3.86       4.75
O      -0.19       4.28       2.60
O      -6.45       3.31       3.75
O      -6.94       5.35       4.55
O      -1.14       0.85       3.85
C      -3.56      -2.95       7.82
O      -0.02       0.25       5.69
C      -3.56       8.18       1.73
O      -5.98       2.45       6.77
O      -7.10       0.57       6.28
C      -3.56       6.87       2.45
C      -4.76       6.34       2.94
C      -4.78       5.10       3.58
C      -3.56       4.40       3.80
C      -2.34       4.96       3.33
C      -2.37       6.17       2.63
C      -3.56       3.15       4.48
C      -3.56       2.08       5.07
C      -3.56       0.84       5.75
C      -4.74       0.37       6.41
C      -4.73      -0.87       7.04
C      -3.56      -1.64       7.11
C      -2.39      -1.17       6.50
C      -2.39       0.03       5.79
