18

O       6.70       0.73       6.78
C       4.70       5.14       5.46
C       6.86       4.30       6.15
H       3.12       3.69       5.32
H       7.91       4.46       6.39
O       8.46       2.14       6.83
C       6.33       3.00       6.25
O       2.59       5.99       4.76
H       5.84       7.23       5.46
C       7.23       1.89       6.64
O       6.61       6.62       5.71
O       4.34       1.56       6.01
H       4.99       0.88       6.33
C       4.17       3.86       5.55
O       4.28       7.46       5.07
C       6.07       5.38       5.77
C       3.81       6.27       5.06
C       4.95       2.77       5.95
