30

H       3.32       6.46       4.03
C       5.12       6.81       6.01
H       8.62       6.29      -3.96
C       7.16       7.62      -5.79
H       4.68       7.81      -4.70
H       7.49       6.05       4.94
H       4.43       6.24      -0.32
H       7.31       5.37       0.31
H       7.96       5.48       2.55
H       3.96       7.04      -2.43
C       5.38       6.35       4.61
H       3.75       5.87       1.66
C       4.33       6.25       3.69
H       7.92       5.47      -1.73
C       4.58       5.92       2.36
C       7.20       5.99      -2.37
C       5.90       5.69       1.91
C       5.89       6.22      -1.90
C       6.94       5.69       2.87
C       4.98       6.85      -2.78
C       6.68       6.02       4.20
C       7.60       6.44      -3.61
C       6.26       5.61       0.50
C       5.46       5.97      -0.53
C       5.38       7.29      -4.03
C       6.70       7.12      -4.46
O       6.10       6.86       6.81
O       6.26       8.02      -6.60
O       3.91       7.13       6.29
O       8.41       7.59      -6.02
