22

H       5.98       8.76       9.92
H       9.95       7.13      10.19
H      10.10       7.80      12.58
H       9.08       8.95      14.56
H       5.11      10.56      14.29
H       4.97       9.89      11.89
C       7.88       7.50       8.49
C       7.18      10.20      15.98
C       6.88       8.56      10.51
C       9.12       7.64      10.68
C       9.20       8.02      12.00
C       8.13       8.71      12.62
C       8.19       9.14      13.97
C       5.94      10.05      13.80
C       5.86       9.67      12.48
C       6.94       8.99      11.86
C       7.95       7.90       9.92
C       7.12       9.79      14.55
O       6.73       7.52       7.93
O       6.10      10.59      16.53
O       8.31      10.12      16.57
O       8.97       7.16       7.93
