28

C       9.30      14.88      16.40
C       8.16      15.71      16.42
C       6.89      15.10      16.46
C       6.76      13.71      16.50
C       8.30      17.12      16.41
C       8.45      18.33      16.43
C       8.55      19.74      16.46
C       9.79      20.40      16.57
C       9.86      21.79      16.61
C       8.69      22.58      16.55
H      10.03      12.86      16.45
H      10.29      15.34      16.37
H       5.99      15.72      16.47
Cl       5.14      13.10      16.58
H      10.71      19.81      16.64
H       6.40      20.03      16.32
C       7.46      21.90      16.45
C       7.37      20.52      16.40
Cl      11.45      22.47      16.79
H       6.56      22.52      16.42
O       9.03      10.86      16.86
O       6.84      10.73      16.31
O       7.50      24.57      16.91
O       9.66      24.75      16.26
C       7.91      11.38      16.56
C       8.63      24.08      16.58
C       7.90      12.88      16.50
C       9.16      13.51      16.45
