20

H       5.44      14.89      10.16
H       9.62      17.44       9.24
H       5.41      17.39      10.16
H       9.65      14.94       9.24
C       7.49      10.68       9.70
C       7.57      21.65       9.70
C       7.50      18.99       9.70
C       7.56      13.34       9.70
C       7.55      12.12       9.70
C       7.51      20.21       9.70
C       6.33      16.84       9.96
C       8.73      15.49       9.44
C       6.35      15.46       9.96
C       8.71      16.87       9.44
C       7.51      17.58       9.70
C       7.55      14.75       9.70
O       6.32      10.17       9.70
O       8.74      22.16       9.70
O       6.46      22.28       9.71
O       8.60      10.05       9.70
