24

O       2.87       6.99       5.49
O       3.55       7.00       3.33
O       4.99       3.25      -1.55
O       5.16       1.08      -2.25
H       3.70       2.36       6.74
H       3.26       4.84       6.65
H       3.95       4.74       2.44
H       4.55       3.48       0.79
H       5.14      -0.58      -0.41
H       4.84      -1.29       1.99
C       3.74       2.91       5.80
C       3.50       4.28       5.75
C       3.56       4.95       4.53
C       3.88       4.21       3.39
C       4.10       2.84       3.49
C       4.41       1.97       2.36
C       4.60       2.42       1.06
C       4.86       1.51       0.04
C       4.95       0.15       0.37
C       4.77      -0.24       1.69
C       3.30       6.44       4.44
C       5.02       2.02      -1.39
N       4.02       2.20       4.69
N       4.50       0.65       2.67
