15

H       0.54       4.43       0.59
H       2.88       4.95       1.25
N       2.01       6.68       0.33
C       2.26       9.09       0.16
H       3.30       5.24      -0.47
N       0.74       4.98      -1.43
C       2.98       7.78       0.50
H       3.40       7.81       1.51
C       2.50       5.30       0.28
H       3.79       7.61      -0.23
H       2.96       9.93       0.24
C       1.33       4.43      -0.18
H       1.67       3.39      -0.33
H       1.43       9.25       0.87
N       1.65       9.00      -1.18
