20

H       2.00       7.54      11.54
H      -1.99       8.40       8.71
C      -0.10      12.19       6.63
C       0.07       3.73      13.60
C       1.13       7.73      10.92
C      -1.12       8.21       9.32
C       0.03       6.86      11.00
C      -0.02       9.08       9.25
C      -1.10       7.11      10.18
C       1.11       8.83      10.07
C       0.06       5.76      11.88
C      -0.05      10.18       8.36
C      -0.07      11.11       7.58
C       0.07       4.82      12.66
Cl       2.47       9.88      10.01
Cl      -2.46       6.05      10.24
O       1.02      12.58       6.18
O      -1.06       3.27      13.94
O      -1.25      12.64       6.32
O       1.22       3.35      14.02
