18

O      24.69       5.91      13.42
O      23.21       5.72      15.14
O      18.74       9.42      11.10
O      19.87       8.56       9.32
C      23.55       6.13      13.96
C      22.56       6.89      13.17
C      23.00       7.53      12.00
C      22.14       8.21      11.16
H      24.07       7.48      11.76
H      19.26       7.74      12.90
H      19.67       6.37      14.80
H      21.29       5.89      15.27
C      20.76       8.25      11.48
C      20.32       7.67      12.66
C      21.18       6.99      13.54
C      19.72       8.81      10.56
N      20.68       6.46      14.69
Cl      22.80       9.04       9.79
