48

O      11.68       3.37       9.60
O      10.38       1.49       9.59
C       3.10      12.29       7.24
C       3.37      11.10       8.08
C       2.83      10.98       9.37
C       3.15       9.87      10.16
C       4.02       8.87       9.69
C       4.57       9.02       8.40
C       4.25      10.11       7.61
C       4.30       7.65      10.47
C       3.30       7.05      11.24
C      -0.92       2.96      14.26
C       0.24       3.67      13.65
C       1.53       3.54      14.19
C       2.59       4.25      13.63
C       2.39       5.11      12.53
C       1.09       5.23      12.01
C       0.03       4.51      12.56
C       3.51       5.80      11.86
C       4.75       5.18      11.72
C      10.56       2.76       9.70
C       9.34       3.56      10.00
C       9.40       4.95      10.16
C       8.26       5.67      10.50
C       7.03       5.02      10.69
C       6.98       3.62      10.53
C       8.11       2.90      10.19
C       5.78       5.76      10.96
C       5.54       7.00      10.35
H       2.17      11.76       9.74
H       2.72       9.79      11.16
H       5.22       8.24       8.00
H       4.66      10.21       6.61
H       2.32       7.52      11.31
H       1.69       2.90      15.05
H       3.59       4.16      14.06
H       0.91       5.86      11.14
H      -0.97       4.60      12.14
H       4.91       4.20      12.17
H       6.32       7.44       9.72
O       2.36      13.22       7.72
O       3.66      12.31       6.08
H      10.36       5.45      10.04
H       8.32       6.75      10.63
H       6.03       3.10      10.64
H       8.07       1.82      10.06
O      -0.72       2.25      15.31
O      -2.05       3.16      13.70
