20

H      -4.57      -2.40      11.82
O      -4.60      -5.65      16.57
O      -4.50      -5.69       9.60
H      -3.73      -7.65      14.37
H      -4.59      -2.38      14.31
H      -3.74      -7.68      11.81
O      -4.58      -3.37      16.59
O      -4.59      -3.41       9.57
F      -5.74      -7.82      14.45
F      -5.76      -7.81      11.75
C      -4.56      -4.54      10.15
C      -4.64      -5.71      12.39
C      -4.59      -4.54      11.64
C      -4.59      -3.34      12.37
C      -4.60      -3.33      13.77
C      -4.62      -4.52      14.52
C      -4.65      -5.71      13.78
C      -4.62      -7.22      13.89
C      -4.62      -7.23      12.30
C      -4.60      -4.50      16.01
