28

H       2.13       6.27      15.92
H      -2.16      11.47       8.06
H      -1.58       4.62      14.44
H       1.53      13.13       9.54
C      -0.33      13.44       7.63
C       0.29       4.31      16.35
C       1.20       7.33      14.28
C      -1.24      10.41       9.70
C       1.29       6.31      15.22
C      -1.33      11.44       8.76
C       0.28       5.35      15.28
C      -0.32      12.40       8.70
C      -0.79       5.37      14.38
C       0.75      12.38       9.60
C      -0.84       6.36      13.40
C       0.80      11.39      10.58
C       0.14       7.39      13.34
C      -0.17      10.36      10.64
C       0.04       8.42      12.40
C      -0.07       9.32      11.58
Cl       2.40       8.57      14.27
Cl      -2.43       9.17       9.71
Cl      -2.11       6.33      12.24
Cl       2.08      11.41      11.73
O       0.81      13.88       7.28
O      -0.84       3.86      16.71
O      -1.45      13.78       7.13
O       1.42       3.96      16.83
