46

C       5.45      18.27      26.81
C       6.06      17.84      27.94
C       7.11      16.85      27.99
C       7.95      16.52      26.98
H       6.53      25.19      29.72
H       3.03      23.67      31.78
C       3.52      19.34      25.83
C       3.03      18.22      25.23
C       2.07      18.21      24.15
C       1.81      19.23      23.29
H       1.14      21.06      21.04
H      -0.50      17.37      22.61
C       4.59      20.31      27.76
C       3.51      20.99      28.21
C       3.57      22.10      29.13
C       4.63      22.93      29.31
H      10.19      15.79      25.16
H       8.61      14.26      28.89
N       4.55      19.33      26.77
N       4.34      25.30      32.10
N       5.45      25.78      31.45
H       5.63      17.80      25.84
H       5.70      18.23      28.90
H       7.22      16.33      28.95
H       7.91      17.11      26.05
N      -0.47      19.80      20.49
N      -0.98      18.63      20.99
H       3.35      17.25      25.61
H       1.51      17.28      24.03
H       3.12      20.33      25.61
N      10.73      14.21      26.46
N      10.22      13.73      27.65
H       2.42      20.13      23.33
H       2.52      20.65      27.90
H       2.67      22.28      29.72
H       5.59      20.48      28.16
H       5.49      22.84      28.64
C       5.69      24.99      30.38
C       4.72      23.97      30.31
C       3.90      24.22      31.42
C       0.58      20.16      21.26
C       0.78      19.21      22.28
C      -0.25      18.27      22.05
C       9.97      15.25      26.08
C       8.95      15.48      27.02
C       9.16      14.48      27.99
