22

H      11.62      13.32       1.69
H      13.42      10.56      -1.12
H      12.84      12.62       4.03
H      15.27       9.27       2.73
H      11.98       9.15       4.17
H      11.14       9.04      -0.09
C      12.02      12.80       0.83
C      12.64      11.55       0.74
C      12.94      11.39      -0.62
C      13.57      11.83       3.90
C      13.72      10.89       2.87
C      14.83      10.12       3.24
C      11.62       8.94       3.16
C      11.96       9.55       1.95
C      11.20       8.88       0.98
N      12.87      10.61       1.77
N      12.51      12.48      -1.30
N      11.96      13.36      -0.40
N      15.31      10.57       4.42
N      14.54      11.63       4.83
N      10.45       7.92       1.59
N      10.72       7.96       2.93
