42

O       6.47       0.05       6.24
O       9.90      -9.16       8.15
O       6.27      -2.59      12.02
O      10.08      -5.28       9.01
H       6.48      -9.33      12.18
H       7.89      -8.77      13.15
H       6.79     -10.03      13.81
H       9.58      -8.24       8.23
H       6.36      -3.58      13.87
H       5.01      -4.08      12.79
H       4.98      -2.46      13.57
H      10.23      -6.15       9.43
H       6.30       1.36       4.61
H       4.97       0.17       4.78
H       6.94      -5.22      12.33
H       6.60      -0.38       4.26
H       4.74       1.48      10.20
H       9.30      -2.82       8.67
C       9.42      -9.86       9.21
C       4.97       1.33       9.15
C       8.84      -9.34      10.40
C       5.95       0.50       8.60
C       7.46      -4.67      11.55
C       8.40      -5.36      10.75
C       9.12      -4.65       9.76
C       8.80      -3.33       9.48
C       7.80      -2.66      10.21
C       7.18      -3.33      11.31
C       8.58      -6.76      10.80
C       7.31      -1.41       9.76
C       6.74      -0.46       9.24
C       8.68      -7.98      10.67
C       5.77       0.69       7.19
C       7.25      -9.63      12.90
C       5.63      -3.22      13.12
C       6.05       0.32       4.89
C       8.58     -10.52      11.15
N       4.77       1.54       6.94
N       8.97     -11.59      10.47
N       9.51     -11.20       9.25
N       4.26       1.93       8.18
O       8.04     -10.71      12.37
