15

H       3.43       0.96       4.77
O       4.34      -4.40       6.65
O       6.45      -3.95       5.96
O       4.11       0.31       5.07
C       4.54       2.42       6.08
C       6.01      -1.16       6.59
C       5.09      -2.15       6.69
C       5.73       0.27       6.78
C       4.84       0.96       6.01
C       5.31      -3.61       6.41
Cl       7.68      -1.45       6.24
Cl       3.49      -1.75       7.21
Cl       6.66       1.04       8.02
O       3.39       2.75       5.61
O       5.42       3.21       6.52
