24

C       5.30       9.38      11.28
C      -2.60       8.09      12.54
C       3.92       9.34      11.29
C      -1.22       8.12      12.53
C       3.25       8.46      12.17
H       5.86      10.04      10.63
C       4.05       7.65      12.99
H       6.08       7.13      13.55
C       5.43       7.74      12.93
H       1.43       7.63      12.98
C       1.80       8.36      12.26
H       3.58       6.95      13.69
C       0.91       9.09      11.56
H       3.37       9.99      10.61
H       1.27       9.83      10.84
C      -1.34       9.81      10.83
H      -0.67       7.47      13.21
H      -0.88      10.51      10.13
C      -2.73       9.72      10.89
N       6.05       8.60      12.09
N      -3.34       8.87      11.73
H      -3.16       7.43      13.20
C      -0.54       9.00      11.65
H      -3.38      10.33      10.27
