28

H       8.21       0.61       2.37
H       5.60       2.03       3.14
H       8.10       2.25       3.12
H       5.75       0.40       2.41
C       3.24       1.23       0.86
C      10.55       2.13       0.87
C       3.30       1.18      -1.35
C      10.50       1.91      -1.32
H       3.52       1.28      -2.41
H      10.25       1.85      -2.38
H       5.52       2.96      -2.21
H       7.94       3.21      -2.21
N       2.20       0.49       0.42
N      11.75       1.67       0.48
H      10.35       2.34       1.91
H       3.39       1.40       1.92
N       2.24       0.46      -0.94
N      11.72       1.54      -0.89
C       4.00       1.68      -0.24
C       9.69       2.29      -0.23
C       6.14       2.05       0.97
C       7.53       2.18       0.96
C       5.35       2.23      -0.18
C       8.26       2.52      -0.18
C       6.06       2.73      -1.29
C       7.46       2.87      -1.30
C       7.68       1.58       2.35
C       6.11       1.44       2.36
