42

H       3.65       5.13       3.89
H      -3.30       9.93      12.29
H       2.38       6.85       5.14
H      -2.04       8.21      11.03
H       2.23       2.12       6.64
H      -1.88      12.94       9.54
H      -1.08       5.68       7.02
H       1.43       9.38       9.16
H       4.86       2.05       3.01
H      -4.51      13.01      13.17
C      -1.22       7.48       8.17
C       1.57       7.58       8.00
C      -0.53       8.54       8.79
C       0.88       6.52       7.39
C       3.07       7.64       8.04
C      -2.72       7.42       8.14
C       3.04       4.84       4.74
C      -2.69      10.22      11.43
C       2.33       5.81       5.45
C      -1.99       9.25      10.72
C       1.58       5.48       6.59
C      -1.23       9.58       9.59
C       1.54       4.13       6.96
C      -1.19      10.93       9.22
C       2.26       3.15       6.29
C      -1.91      11.91       9.88
C       3.03       3.51       5.18
C      -2.68      11.55      11.00
C      -0.52       6.48       7.49
C       0.86       8.58       8.68
C       3.86       2.46       4.55
C      -3.51      12.60      11.63
O       3.60       8.79       8.02
O      -3.26       6.27       8.15
O       3.68       6.52       8.11
O      -3.33       8.54       8.07
O       4.16       1.39       5.08
O       4.31       2.80       3.30
O      -3.81      13.67      11.10
O      -3.96      12.26      12.88
F       0.80       3.76       8.04
F      -0.45      11.30       8.13
