32

O       5.37      17.48       5.78
O       8.14       7.61      -5.85
H       4.97       8.19      -3.61
H       8.56      16.81       3.61
H       8.75      11.26      -2.62
H       4.80      13.74       2.63
H       8.95       9.59      -4.48
H       4.58      15.42       4.47
C       6.52      17.17       5.31
C       7.01       7.85      -5.31
C       5.81       8.85      -3.37
C       7.73      16.16       3.38
C       5.73       9.73      -2.29
C       7.81      15.27       2.30
C       6.79      10.62      -2.01
C       6.75      14.38       2.02
C       7.93      10.56      -2.83
C       5.61      14.44       2.84
C       8.04       9.65      -3.87
C       5.49      15.36       3.87
C       6.97       8.80      -4.16
C       6.56      16.22       4.15
C       6.78      13.39       0.94
C       6.76      11.61      -0.93
N       7.33      12.81      -1.20
N       6.21      12.19       1.21
N       7.34      13.72      -0.24
N       6.20      11.28       0.26
Cl       4.25       9.73      -1.39
Cl       9.29      15.26       1.40
O       5.89       7.38      -5.69
O       7.64      17.58       5.74
