14

O       8.05       8.27       5.79
C       8.14       4.87       3.25
C       9.26       6.64       4.58
H      10.18       4.27       3.46
H       7.19       6.48       4.37
O      10.33       8.27       5.86
C       9.15       2.89       2.14
H      10.27       6.30       4.33
O       8.01       2.50       1.72
C       9.21       4.08       3.02
C       8.15       6.04       4.10
C       9.20       7.81       5.47
O      10.29       2.36       1.88
H       7.19       4.58       2.79
