30

O       4.52       0.83      14.01
O       8.67      -1.33      11.57
H       4.59       2.59      15.94
H       8.60      -3.09       9.62
H       4.84       0.18      13.28
H       8.35      -0.68      12.29
H       4.12      -1.65      11.29
H       9.07       1.17      14.26
H       4.30      -3.31       9.42
H       8.89       2.85      16.10
C       6.66       3.77      17.27
C       6.55      -4.25       8.28
C       6.46      -3.28       9.42
C       6.73       2.80      16.14
C       7.63      -2.77       9.99
C       5.57       2.28      15.58
C       7.55      -1.84      11.03
C       5.65       1.34      14.54
C       6.26      -1.43      11.50
C       6.93       0.93      14.06
C       5.09      -1.98      10.92
C       8.10       1.49      14.64
C       5.19      -2.89       9.89
C       8.00       2.41      15.66
N       6.07      -0.51      12.51
N       7.13       0.01      13.05
O       7.77       4.16      17.76
O       5.44      -4.61       7.76
O       5.51       4.14      17.68
O       7.70      -4.62       7.91
