28

H       4.63      24.45      22.18
H       8.72      26.09      26.47
H       8.35      21.22      21.58
H       4.99      29.30      27.04
H       8.50      22.94      23.38
H       4.84      27.57      25.26
C       6.44      20.76      19.85
C       6.89      29.80      28.76
C       5.45      23.73      22.06
C       7.90      26.80      26.58
C       5.37      22.76      21.07
C       7.97      27.79      27.56
C       6.42      21.84      20.88
C       6.92      28.71      27.73
C       7.54      21.93      21.74
C       5.80      28.60      26.89
C       7.62      22.89      22.74
C       5.72      27.63      25.90
C       6.57      23.81      22.91
C       6.78      26.71      25.73
C       6.64      24.82      23.90
C       6.71      25.70      24.75
Cl       3.97      22.83      20.05
Cl       9.38      27.74      28.57
O       5.33      20.33      19.42
O       8.00      30.22      29.21
O       7.59      20.34      19.49
O       5.74      30.23      29.09
