35

O       4.86      20.51       1.51
O       2.58      20.47       1.46
H       1.85      18.10       5.90
H       3.07      18.93       6.87
H       2.65      16.07       4.69
H       5.35      15.05       5.73
H       6.31      16.75       7.44
H       3.73      14.40       5.99
H       5.14      17.92       8.08
C       4.43      13.62      10.55
C       5.31      17.96       5.90
C       2.84      17.99       6.35
C       2.85      16.81       7.38
C       4.44      14.46       9.36
C       3.88      17.74       5.23
C       5.33      17.20       7.27
C       4.27      16.09       7.27
C       4.31      15.32       5.92
C       3.74      16.23       4.80
C       4.43      15.19       8.40
C       3.71      18.63       4.11
C       3.70      19.35       3.13
C       3.71      20.18       1.94
C       5.55      19.39       6.13
C       2.63      17.35       8.73
C       1.81      15.80       7.13
C       4.31      15.92       3.50
C       6.36      17.48       4.99
N       5.75      20.51       6.37
N       2.46      17.81       9.79
N       1.02      14.98       6.90
N       4.72      15.64       2.44
N       7.22      17.09       4.31
O       5.56      13.33      11.03
O       3.28      13.29      10.97
