22

H       2.01       9.75       7.38
H       1.50      12.21       7.28
H       4.64      12.80      10.19
H       0.07      15.79       6.85
H       3.35      16.43       9.59
H       2.77      18.88       9.56
C       2.56      10.47       7.98
C       2.28      11.82       7.93
C       3.04      12.68       8.74
C       4.04      12.15       9.56
C       4.24      10.77       9.55
C       0.69      16.45       7.46
C       1.74      15.94       8.22
C       2.52      16.80       9.00
C       2.20      18.15       8.99
C       0.44      17.82       7.51
N       3.52       9.94       8.78
N       2.88      14.09       8.82
N       1.91      14.53       8.13
N       1.17      18.66       8.26
Cl       5.44      10.09      10.56
Cl      -0.84      18.48       6.59
