51

C      11.83      12.70      23.84
C      12.29      11.69      24.84
O      20.49      12.31      22.66
H      10.41      11.65      25.89
C      11.43      11.28      25.87
O      19.03      13.69      23.61
C      11.89      10.43      26.86
H      11.23      10.12      27.68
O      10.62      13.10      23.89
C      13.23       9.97      26.85
H      15.10      10.00      25.77
H      14.27      11.53      24.02
C      14.08      10.35      25.79
H      13.41       7.05      30.86
C      13.60      11.21      24.81
C      14.82       8.58      28.23
H      11.91       6.46      32.76
O      11.28       5.41      34.89
C      17.01       8.18      27.89
H      15.15       4.40      34.68
C      15.95       7.20      29.62
H      16.64       4.96      32.82
C      15.12       6.05      31.70
H      17.73      12.64      25.50
C      13.77       6.45      31.69
H      17.10      10.86      27.09
C      12.94       6.12      32.75
H      19.88       8.17      25.17
C      13.42       5.38      33.84
H      20.51       9.98      23.58
C      14.75       4.95      33.84
C      15.59       5.28      32.78
N      13.62       9.14      27.91
C      12.52       5.15      34.99
N      15.91       8.83      27.48
C      19.57      12.50      23.51
N      17.10       7.33      28.92
C      19.16      11.43      24.44
N      14.78       7.79      29.33
C      18.20      11.66      25.43
N      16.04       6.37      30.71
C      17.85      10.66      26.33
N      18.17       8.38      27.17
C      18.45       9.39      26.24
C      19.41       9.15      25.25
C      19.76      10.16      24.35
H      12.89       8.90      28.57
H      16.98       6.01      30.84
O      12.68      13.14      22.99
H      18.91       7.73      27.41
O      12.98       4.70      36.12
