18

O      20.53      17.37      18.24
O      22.74      16.99      17.84
S      23.04      14.74      19.58
S      20.04      12.21      21.00
C      21.59      16.68      18.30
C      20.45      14.59      19.41
C      22.66      12.32      21.13
C      21.58      10.35      22.36
O      20.44       9.82      22.59
C      21.53      15.38      19.01
O      22.72       9.95      22.77
C      21.57      11.57      21.53
C      22.25      13.43      20.37
C      20.85      13.50      20.21
H      23.68      12.05      21.39
N      19.05      14.76      19.02
O      18.78      15.28      17.94
O      18.22      14.29      19.83
