36

H      15.42       8.58       8.52
H      15.17       5.53       8.98
C      16.25       8.99      12.29
C      15.75       7.71      10.48
C      16.12       6.74      12.50
C      14.30       5.02       5.25
C      14.84       6.35       7.00
C      14.51       7.24       4.94
C      14.72      10.46       2.44
C      15.85       3.53      14.98
C      16.29      12.33      14.59
C      14.18       1.63       3.04
C      14.11       3.74       4.65
C      14.05       2.73       3.97
C      14.55       9.25       3.22
C      14.51       8.35       4.04
C      16.14       5.60      13.36
C      16.10       4.70      14.17
C      16.40      10.24      12.95
C      16.44      11.22      13.68
C      15.43       7.63       9.05
C      15.16       6.47       8.43
N      15.96       8.95      10.98
N      15.81       6.57      11.21
N      16.37       7.92      13.11
N      14.59       5.10       6.56
N      14.82       7.46       6.23
N      14.22       6.05       4.39
O      14.17      10.57       1.30
O      15.42      11.34       3.04
O      16.39       3.41      16.13
O      17.25      13.15      14.74
O      13.21       0.83       2.87
O      15.31       1.62       2.44
O      15.14      12.37      15.15
O      15.05       2.69      14.42
