42

H       7.40       8.52       3.44
H       5.38       4.81      -3.41
H       4.25       5.77       0.84
H       6.53       8.96      -1.00
H       8.72       8.64      -1.17
H       6.77       4.56       1.05
H       4.34       3.38       3.29
H       9.01       8.62      -4.77
C       5.65       7.33       5.03
C       5.59       6.85      -5.07
C       6.91       7.78       1.48
C       5.78       5.69      -1.48
C       6.72       7.90       2.86
C       5.63       5.72      -2.87
C       5.72       7.20       3.54
C       5.88       6.88      -3.61
C       4.87       6.37       2.78
C       6.35       8.00      -2.91
C       4.99       6.33       1.40
C       6.30       8.03      -1.52
C       6.02       7.00       0.71
C       6.02       6.88      -0.76
S       8.32       8.80       0.93
S       5.79       4.02      -0.78
S       3.57       5.34       3.47
S       7.34       9.35      -3.58
O       5.61       8.49       5.53
O       5.50       5.72      -5.63
O       5.66       6.22       5.66
O       5.42       7.99      -5.62
O       7.77      10.08       0.54
O       9.31       8.71       1.96
O       8.89       8.07      -0.36
O       4.59       3.75      -0.03
O       6.21       3.13      -1.82
O       7.04       4.09       0.23
O       3.03       5.98       4.63
O       2.75       4.87       2.39
O       4.41       4.05       4.01
O       6.56      10.49      -3.96
O       8.40       9.53      -2.59
O       7.99       8.73      -4.86
