48

C       4.49       7.46       0.80
C       5.59       5.21       0.98
H      10.59       8.89       4.13
C       7.13       6.91      -3.37
H       5.75       7.91       5.36
C       7.52       6.93      -4.72
H      10.71       8.03       0.26
C       6.54       6.64      -5.67
H      10.32       7.72      -1.47
C       5.19       6.36      -5.30
C       4.76       6.38      -3.98
H       9.57       9.09      -0.60
H       8.59       4.96       0.38
C       5.75       6.64      -3.01
H       9.77       5.36      -0.89
N       7.58       8.84       7.40
H      10.15       5.69       0.83
N       8.77       9.28       7.84
N       9.69       9.28       6.86
H       3.76       7.04       0.10
N       9.07       7.98       2.18
H       4.13       7.38       1.83
N       6.39       7.48       2.86
H       4.63       8.52       0.57
N       8.06       7.10      -2.40
H       4.84       4.80       0.29
N       5.38       6.62      -1.70
H       6.51       4.62       0.88
N       6.61       6.54      -7.03
H       5.23       5.11       2.01
H       8.56       7.13      -4.99
N       5.40       6.22      -7.47
H       3.74       6.18      -3.67
N       4.51       6.10      -6.46
C       7.71       8.57       6.06
C       9.07       8.85       5.71
C       9.55       8.68       4.41
C       8.64       8.21       3.45
C       7.26       7.94       3.81
C       6.79       8.12       5.12
C       8.22       7.50       1.29
C       8.78       7.12      -0.07
C       7.69       7.04      -1.14
C       6.31       6.81      -0.78
C       5.83       6.71       0.66
C       6.84       7.26       1.64
C       9.92       8.05      -0.50
C       9.36       5.68       0.07
