40

N       5.35      11.43       0.51
N       9.33      13.45       6.80
N       8.52      12.44       7.24
N       4.45       6.75      -6.86
H       9.42      14.64       5.06
N       3.29       6.54      -6.15
N       5.90      11.40      -0.65
O       2.36      10.64      -0.38
O       2.42       8.16      -0.46
O       3.91       9.40       1.05
H       8.68      13.68       2.70
H       7.63      12.93       0.58
H       7.06      11.23      -2.83
H       5.16      12.44       4.88
H       4.14      11.64       2.77
H       3.40       7.94      -2.47
F       6.80       9.71      -4.91
H       6.83      11.44       6.43
H       6.20       7.84      -6.46
H       4.63      10.64       0.81
H       2.53       7.12      -4.26
C       3.36       7.16      -4.96
C       4.59       7.83      -4.87
C       8.90      13.85       5.59
C       7.77      13.10       5.21
C       4.97       8.69      -3.77
C       7.58      12.22       6.30
C       4.20       8.67      -2.58
C       4.38       9.53      -1.52
C       5.45      10.49      -1.59
C       6.25      10.51      -2.76
C       5.23       7.53      -6.10
C       6.01       9.64      -3.80
C       7.10      12.84       1.53
C       7.67      13.25       2.72
C       5.86      12.17       1.57
C       7.04      13.02       3.96
C       5.72      12.52       3.95
C       5.13      12.09       2.77
S       3.12       9.41      -0.22
