36

H       6.45      16.29      10.53
H      10.75      16.41      10.45
H       6.46      20.71       9.91
H      11.93      22.62       9.74
H      11.13      24.16       9.40
H       5.37      14.26      10.29
H       6.23      12.75       9.95
H      11.93      14.41      10.31
H      11.13      12.84      10.07
H       5.39      22.73       9.59
H       6.24      24.25       9.45
H      10.77      20.62      10.02
C       8.70      12.23       9.83
C       8.70      24.80       9.48
C       8.67      23.33       9.55
C       9.84      21.19       9.92
C       7.40      15.77      10.45
C       9.82      15.83      10.41
C       8.66      13.67      10.12
C       7.41      21.23       9.86
C       9.89      22.56       9.64
C       7.42      14.37      10.29
C       9.88      14.44      10.24
C       7.43      22.61       9.60
C       8.61      20.53      10.04
C       8.59      16.50      10.47
C       8.58      19.13      10.30
C       8.57      17.92      10.45
N       6.23      23.24       9.36
N      11.11      23.14       9.44
N       6.22      13.71      10.30
N      11.10      13.85      10.15
O       9.83      11.61       9.85
O       7.60      25.45       9.64
O       9.83      25.41       9.32
O       7.60      11.63       9.53
