26

H       1.33      13.95      22.06
H       5.90      13.94      23.38
H       2.01      13.64      26.40
H       1.62      13.63      23.99
H       5.23      13.62      19.04
H       5.61      13.63      21.45
O       4.10      13.76      17.05
O       1.83      13.72      17.09
O       3.13      13.78      28.39
O       5.40      13.73      28.35
C       2.98      13.75      17.67
C       4.25      13.76      27.77
F       0.74      13.92      19.62
F       6.49      13.92      25.82
C       3.09      13.76      19.15
C       4.14      13.77      26.29
C       2.03      13.84      20.06
C       2.22      13.86      21.44
C       5.21      13.84      25.38
C       5.02      13.86      24.00
C       2.85      13.70      25.72
C       2.64      13.70      24.35
C       4.38      13.69      19.72
C       4.59      13.70      21.09
C       3.51      13.79      21.99
C       3.72      13.79      23.45
