20

H      20.32      21.37      29.35
H      20.66      16.75      27.65
N      18.30      20.69      27.81
N      22.59      17.37      29.32
H      17.70      20.40      27.06
H      18.41      21.69      27.99
H      23.38      17.78      29.80
H      22.75      16.54      28.76
C      18.56      17.93      26.67
C      22.46      20.21      30.27
O      18.79      16.73      26.29
O      17.55      18.64      26.28
O      22.26      21.43      30.61
O      23.48      19.52      30.65
C      19.52      18.55      27.62
C      21.47      19.57      29.37
C      19.38      19.88      28.11
C      21.59      18.23      28.91
C      20.38      20.35      28.97
C      20.60      17.77      28.03
