16

O      26.56      19.82      30.77
O      27.59      21.86      30.90
S      32.08      19.97      27.69
S      28.48      18.46      29.18
C      33.06      17.77      26.36
C      27.51      20.65      30.52
C      30.79      17.69      27.61
C      29.78      20.73      29.26
C      31.96      18.31      27.17
C      28.61      20.12      29.70
C      30.57      19.85      28.50
C      29.99      18.57      28.37
Cl      30.26      22.34      29.56
O      34.00      18.60      26.09
Cl      30.31      16.08      27.30
O      32.99      16.55      26.00
