20

H      10.46      15.05       8.45
H       6.17      17.56       8.74
H      10.47      17.55       8.46
H       6.16      15.07       8.73
C       8.24      10.82       8.58
C       8.39      21.79       8.61
C       9.53      16.99       8.52
C       7.10      15.62       8.67
C       8.32      17.72       8.60
C       8.31      14.90       8.60
C       7.10      17.01       8.67
C       9.53      15.61       8.52
C       8.33      19.13       8.60
C       8.30      13.48       8.59
C       8.28      12.26       8.58
C       8.35      20.35       8.61
O       9.36      10.22       8.61
O       7.26      22.39       8.58
O       7.08      10.29       8.55
O       9.54      22.33       8.64
