29

C       9.60       4.18       5.38
C      12.20       5.18       7.29
C      10.94       5.82       6.68
H       6.89       7.43       3.40
C      10.62       7.18       7.34
H      10.52       6.75       1.55
C      10.19       7.04       8.81
H      11.11       4.93       3.16
C       9.62       8.00       6.53
H       7.30       5.64       5.09
N       8.70       7.17       2.43
H       8.77       3.46       5.53
N       9.81       4.86       6.69
H      10.51       3.61       5.14
H      11.22       6.05       5.64
O      12.14       3.99       7.75
H      11.57       7.73       7.33
O      13.23       5.91       7.27
H      10.08       8.04       9.25
H      10.94       6.49       9.40
H       9.24       6.50       8.92
H       8.60       7.57       6.55
H       9.93       8.09       5.48
H       9.56       9.01       6.96
C       7.81       6.86       3.40
C       9.85       6.46       2.35
C      10.16       5.45       3.26
C       9.26       5.15       4.29
C       8.06       5.86       4.33
