16

O       8.97      11.86      19.03
C      13.75      14.90      22.16
O      13.57      14.76      23.41
F      12.34      13.99      17.64
F      11.34      13.41      22.99
H      13.83      14.93      19.49
H       9.85      12.47      21.14
C      10.92      13.12      19.39
C      12.75      14.27      21.24
C      12.06      13.83      18.96
C       9.92      12.50      18.47
C      12.95      14.39      19.86
C      10.72      13.01      20.77
O      14.71      15.53      21.60
O      10.10      12.64      17.22
C      11.61      13.57      21.67
