38

H       2.48      21.92      15.50
H       4.12      15.60      12.38
H       3.13      20.97      11.31
H       3.47      16.55      16.56
H       4.45      18.18       8.34
H       2.15      19.34      19.54
H       2.97      21.42      13.17
C       2.05      21.48      18.11
H       3.63      16.10      14.71
C       4.56      16.03       9.76
O       2.58      21.19       8.37
O       4.02      16.32      19.51
O       4.84      21.18       8.26
O       1.76      16.34      19.61
H       1.82      21.45      19.21
H       4.78      16.07       8.66
C       3.73      20.77       8.71
C       2.87      16.75      19.16
C       2.82      17.83      18.13
O       1.99      22.55      17.51
C       3.78      19.68       9.74
O       4.62      14.96      10.36
C       2.41      20.16      17.57
C       4.20      17.36      10.31
C       2.42      19.13      18.50
C       4.18      18.39       9.37
C       3.15      17.56      16.82
C       3.45      19.96      11.06
C       3.07      18.55      15.81
C       3.54      18.97      12.06
C       2.72      19.89      16.20
C       3.88      17.63      11.68
C       3.33      18.24      14.42
C       3.27      19.27      13.45
C       2.98      20.60      13.89
C       3.62      16.92      13.99
C       2.71      20.90      15.20
C       3.90      16.62      12.68
