13

O       3.62       4.93      14.39
H       4.74       1.02      11.63
H       4.09       2.15      10.39
C       4.54       4.50      13.65
C       4.15       3.33      12.77
O       7.14       2.51      10.23
O       6.08       0.68       9.41
H       3.26       3.60      12.17
H       3.91       2.47      13.41
O       5.23       3.02      11.90
O       5.75       4.93      13.57
C       6.17       1.68      10.15
C       4.96       1.93      11.04
