20

C       6.21       9.36       2.40
C       5.82       9.11       1.09
C       4.49       9.34       0.70
C       3.61       9.79       1.69
C       4.07      10.02       2.98
H       7.24       9.21       2.73
H       6.57       8.76       0.40
H       2.56       9.98       1.49
H       3.40      10.37       3.76
H       1.32       9.23      -2.73
H       1.98       9.68      -0.40
C       2.74       9.33      -1.09
C       4.06       9.10      -0.70
C       4.95       8.65      -1.69
C       2.35       9.08      -2.40
C       4.49       8.42      -2.98
H       6.00       8.46      -1.49
H       5.16       8.07      -3.76
N       5.35       9.81       3.34
N       3.21       8.63      -3.34
