26

Cl      17.32      17.30       1.37
Cl      21.20      21.18      -1.37
O      22.65      22.72       3.23
O      15.78      15.85      -3.23
O      21.50      21.58       4.83
O      16.92      17.00      -4.83
H      16.41      16.45      -0.94
H      22.05      22.09       0.94
H      19.89      19.92       3.93
H      18.73      18.71       2.19
H      18.58      18.61      -3.93
H      19.79      19.77      -2.19
C      21.78      21.86       3.62
C      16.64      16.72      -3.62
C      17.39      17.45      -2.56
C      21.05      21.11       2.56
C      17.16      17.19      -1.22
C      17.86      17.86      -0.20
C      21.31      21.34       1.22
C      20.64      20.64       0.20
C      20.11      20.13       2.89
C      19.45      19.45       1.88
C      18.37      18.39      -2.89
C      19.05      19.05      -1.88
C      18.85      18.85      -0.49
C      19.65      19.65       0.49
