46

H       6.94       5.70      10.90
H       3.87      -5.73       8.66
H       3.54       5.51       8.57
H       7.25      -5.55      10.99
H       7.24       1.27       8.71
H       3.55      -1.30      10.85
H       3.51       1.17      10.89
H       7.28      -1.20       8.67
H       8.20       4.80      12.56
H       2.58      -4.85       7.02
H       1.84       4.45       7.61
H       8.95      -4.50      11.94
C       6.21       5.05      10.40
C       4.59      -5.08       9.15
C       4.31       4.94       9.10
C       6.50      -4.98      10.46
C       6.29       3.66      10.47
C       4.50      -3.69       9.10
C       4.32       3.56       9.11
C       6.48      -3.59      10.45
C       5.33       2.86       9.81
C       5.46      -2.89       9.76
C       6.43       0.71       9.19
C       4.36      -0.74      10.38
C       4.34       0.65      10.41
C       6.46      -0.68       9.16
C       5.42      -1.41       9.75
C       5.37       1.38       9.81
S       7.68       3.03      11.42
S       3.09      -3.07       8.16
S       3.01       2.71       8.19
S       7.79      -2.75      11.37
N       5.24       5.67       9.74
N       5.57      -5.70       9.82
O       7.44       1.71      11.88
O       8.88       3.33      10.65
O       7.67       3.97      12.70
O       1.91      -3.39       8.95
O       3.32      -1.74       7.71
O       3.11      -4.01       6.88
O       3.62       1.71       7.37
O       1.96       2.41       9.13
O       2.52       3.85       7.20
O       8.84      -2.45      10.42
O       7.19      -1.74      12.19
O       8.28      -3.89      12.36
