20

O      23.15      26.86      17.01
O      24.63      25.78      11.77
H      21.29      28.23      14.26
H      26.48      24.42      14.52
H      23.78      26.40      17.61
H      23.99      26.24      11.17
C      22.31      27.48      12.28
C      25.46      25.16      16.50
C      23.11      26.89      13.35
C      24.66      25.75      15.43
C      22.77      27.14      14.71
C      25.00      25.50      14.07
C      23.54      26.58      15.74
C      24.23      26.06      13.03
O      22.64      27.23      11.05
O      21.30      28.22      12.59
O      26.47      24.42      16.19
O      25.13      25.41      17.73
O      21.72      27.91      15.10
O      26.05      24.73      13.68
