12

C       0.40      13.97      16.56
C       0.37      14.78      17.49
C       0.33      15.65      18.51
C       0.30      16.44      19.45
C       0.27      17.35      20.56
O      -0.69      11.03      13.06
O       1.59      11.12      12.99
O       1.40      17.67      21.05
O      -0.88      17.73      20.96
C       0.45      11.42      13.47
C       0.44      12.31      14.60
C       0.42      13.10      15.54
