38

H      -1.80       6.40       5.47
H       0.34       6.90      10.60
H      -3.60       5.83       5.49
H      -1.68      10.11      11.38
H       0.57       6.70       6.13
H      -7.41       7.53       9.13
H      -4.16      10.92      12.71
C      -4.92       7.09       8.06
C      -3.95       6.73       7.14
C      -2.58       6.92       7.45
C      -2.25       7.37       8.77
C      -1.55       6.65       6.50
C      -0.23       6.79       6.86
C      -0.90       7.14       9.19
C      -7.64       9.72      11.68
C      -7.06       8.20       9.90
C      -5.68       8.40      10.09
C       1.52       7.08       8.59
C      -9.47       8.60      10.31
C      -8.05       8.84      10.65
C       0.11       6.99       8.22
C      -6.30       9.92      11.91
C      -5.28       9.30      11.15
C      -4.65       7.80       9.26
C      -3.27       7.99       9.58
C      -2.94       8.96      10.57
C      -3.91       9.58      11.34
O       1.86       6.80       9.82
O     -10.34       9.37      10.84
O       2.37       7.46       7.71
O      -9.71       7.65       9.49
O      -3.42      10.53      12.21
O      -0.64       7.06      10.50
O      -4.37       6.19       5.96
O      -1.67       9.41      10.69
F      -6.20       6.80       7.69
F      -5.96      10.77      12.93
F      -8.52      10.36      12.48
