13

C       5.09       0.85       3.91
H       6.81      -2.23       5.40
O       8.16       0.98       1.95
O       6.21       2.05       1.57
H       3.58       0.38       5.40
H       4.56       1.72       3.51
C       6.94       1.21       2.22
C       6.32       0.47       3.37
C       4.55       0.12       4.96
C       6.96      -0.65       3.93
N       5.15      -0.98       5.48
C       6.35      -1.34       4.96
H       7.93      -0.96       3.55
