16

C       4.15      12.24      14.81
H       6.19      11.25      13.42
N       6.61      10.02      11.22
H       3.10      11.16      13.23
H       3.27       9.38      11.89
O       3.13       8.05       9.79
O       5.40       8.00       9.79
C       4.27       8.38      10.23
C       5.23      10.94      13.01
O       3.01      12.56      15.30
C       4.10      11.40      13.60
C       5.25      10.06      11.85
C       4.24       9.31      11.38
O       6.74      10.48      10.09
O       7.51       9.57      11.94
O       5.29      12.56      15.28
