16

C       6.53      -6.10       9.10
O       6.78      -6.45       7.89
C      10.16      -9.83      14.53
O       5.68      -5.23       9.47
O       9.89      -9.51      15.74
O      10.95     -10.76      14.14
H      10.32      -9.93      11.67
S       8.45      -8.01       9.73
C       9.63      -9.21      12.10
S       8.32      -7.84      13.92
C       9.47      -9.06      13.47
C       8.78      -8.33      11.40
C       8.01      -7.52      12.26
C       7.28      -6.79      10.16
C       7.16      -6.65      11.53
F       6.33      -5.79      12.15
