44

N       1.59       6.91       3.86
N       4.70       4.30       2.80
N       7.44       1.07       2.62
N       7.28       1.10       0.23
H       4.04       5.04       5.24
H       5.31       4.07       3.60
H       2.18       6.57       5.83
H       1.21       7.14       1.83
H       3.00       5.62       1.08
H       6.38       2.45       3.71
H       6.06       2.57      -0.60
N       8.92      -1.07       2.62
N       9.08      -1.10       0.23
N      11.65      -4.30       2.80
N      14.77      -6.91       3.86
C       3.67       5.18       3.10
C       3.42       5.47       4.46
C       7.73       0.60       1.40
C       5.02       3.78       1.56
C       2.38       6.33       4.79
C       6.04       2.68       1.56
C       1.84       6.64       2.56
C       2.86       5.80       2.14
C       6.59       2.09       2.70
H      12.32      -5.04       5.24
C       6.44       2.14       0.33
H      11.05      -4.07       3.60
H      15.15      -7.14       1.83
H      13.36      -5.62       1.08
H       9.98      -2.45       3.71
H      10.29      -2.57      -0.60
H      14.18      -6.57       5.83
O       4.48       4.13       0.50
O      11.88      -4.13       0.50
C      12.68      -5.18       3.10
C      12.94      -5.47       4.46
C       8.63      -0.60       1.40
C      11.34      -3.78       1.56
C      13.98      -6.33       4.79
C      10.32      -2.68       1.56
C      14.52      -6.64       2.56
C      13.50      -5.80       2.14
C       9.76      -2.09       2.70
C       9.92      -2.14       0.33
