35

B      -8.15       2.95      12.70
C      -7.23       6.40      11.63
H      -8.07       4.72      10.41
C      -6.86       4.75      14.86
C     -11.03       4.12      12.52
H      -5.48       3.11      11.54
C      -5.13       0.94      11.92
C     -10.14       2.02       9.69
C      -9.01       1.90      10.45
C      -7.05       0.63      12.92
H      -7.10       7.29      11.01
C      -8.22       0.02      13.59
N      -7.64       4.40      12.50
H     -10.40       1.57       8.74
H      -6.50       5.59      15.47
N     -11.02       2.85      10.35
N      -6.89       6.43      12.97
H      -7.76       4.34      15.33
N      -9.20       2.66      11.59
H      -6.10       3.96      14.87
N      -6.99       1.94      12.56
H     -10.34       4.27      13.36
H     -11.97       3.69      12.90
N      -5.93       0.00      12.54
H     -11.27       5.10      12.08
H      -4.15       0.68      11.54
H      -8.09       1.34      10.28
H      -8.01      -1.03      13.83
H      -8.46       0.54      14.52
H      -9.12       0.06      12.95
H      -8.66       2.84      13.79
C      -7.70       5.15      11.34
C      -7.14       5.21      13.47
C      -5.78       2.14      11.92
C     -10.43       3.22      11.50
