32

C      10.78       2.35       2.72
O       8.55       0.83       1.57
C      11.98       3.06       2.93
H      11.10       4.85       5.68
O      10.05      -2.64      -4.38
C       8.69       3.69       5.60
H       8.75       2.05       3.40
O      11.59      -3.74      -3.14
H      12.85       2.90       2.28
C       9.70       0.74       1.13
C      10.04      -0.14      -0.03
H       8.09       0.17      -0.91
C       9.06      -0.32      -1.01
H       8.53      -1.31      -2.85
C       9.30      -1.16      -2.10
H      12.42      -2.25      -1.28
H      12.02      -0.72       0.64
C      10.51      -1.86      -2.19
H      11.64       1.36       1.14
C      11.49      -1.69      -1.20
C      11.26      -0.82      -0.14
C      10.73      -2.82      -3.33
C      13.35       4.74       4.18
N      10.76       1.44       1.65
C      12.09       3.97       3.98
O      14.39       4.38       3.55
O      13.35       5.71       5.01
C      11.01       4.16       4.84
C       9.69       2.57       3.57
C       9.82       3.46       4.64
O       8.98       4.18       6.73
O       7.50       3.40       5.23
