57

H      -0.51       4.73      11.00
H      -1.41       3.08       9.37
H       2.68       2.32       8.14
H       3.39       3.97       9.85
H       1.54       0.27       7.58
H       1.52       1.54       6.30
H       0.51      -4.73      11.00
H       1.41      -3.08       9.37
H      -2.68      -2.32       8.14
H      -3.39      -3.97       9.85
H      -1.54      -0.27       7.58
H      -1.52      -1.54       6.30
H       0.51       4.73       1.11
H       1.41       3.08       2.73
H      -2.68       2.32       3.97
H      -3.39       3.97       2.26
H      -1.54       0.26       4.53
H      -1.52       1.53       5.81
H      -0.51      -4.73       1.11
H      -1.41      -3.08       2.73
H       2.68      -2.32       3.97
H       3.39      -3.97       2.26
H       1.54      -0.26       4.53
H       1.52      -1.53       5.81
C       0.17       4.17      10.35
C      -0.34       3.27       9.43
C       0.56       2.57       8.61
C       1.93       2.83       8.75
C       2.33       3.75       9.71
C       0.90       0.89       6.93
C      -0.17      -4.17      10.35
C       0.34      -3.27       9.43
C      -0.56      -2.57       8.61
C      -1.93      -2.83       8.75
C      -2.33      -3.75       9.71
C      -0.90      -0.89       6.93
C      -0.17       4.17       1.76
C       0.34       3.27       2.68
C      -0.56       2.57       3.49
C      -1.93       2.83       3.36
C      -2.33       3.76       2.40
C      -0.90       0.88       5.17
C       0.17      -4.17       1.76
C      -0.34      -3.27       2.68
C       0.56      -2.57       3.49
C       1.93      -2.83       3.36
C       2.33      -3.76       2.40
C       0.90      -0.88       5.17
C      -0.00       0.00       6.05
N       1.48       4.42      10.51
N      -1.48      -4.42      10.51
N      -1.48       4.42       1.60
N       1.48      -4.42       1.60
O       0.02       1.68       7.74
O      -0.02      -1.68       7.74
O      -0.02       1.68       4.37
O       0.02      -1.68       4.37
