36

H       3.12      16.41      10.60
H       0.83      12.76      10.60
H       0.84      16.41       6.25
H       3.12      12.76       6.25
H       3.53      16.51      14.15
H       3.96      17.18      12.63
H       0.43      12.67      14.15
H      -0.00      12.00      12.63
H       0.43      16.51       2.70
H       0.00      17.18       4.22
H       3.53      12.66       2.70
H       3.95      12.00       4.22
C       1.98      14.59       2.10
C       1.98      14.59      14.75
C       1.98      14.59      13.29
C       2.65      15.62      12.55
C       2.61      15.62      11.15
C       1.98      14.59      10.45
C       1.35      13.55      11.15
C       1.31      13.55      12.55
C       1.98      14.59       9.03
C       1.98      14.59       7.81
C       1.98      14.59       6.39
C       1.35      15.63       5.70
C       1.31      15.62       4.29
C       1.98      14.59       3.56
C       2.65      13.55       4.30
C       2.61      13.55       5.70
N       3.27      16.68      13.18
N       0.68      12.50      13.18
N       0.69      16.68       3.66
N       3.27      12.50       3.66
O       1.06      15.24       1.46
O       2.90      13.94       1.46
O       1.06      13.94      15.39
O       2.90      15.24      15.39
