12

C      13.19       3.73       3.67
C      13.06       3.95       4.87
C      12.95       4.17       6.19
C      12.87       4.35       7.40
C      12.77       4.57       8.72
O      13.11       2.15       2.00
C      12.66       4.79       9.92
O      14.17       4.13       1.61
O      12.71       6.38      11.58
O      11.71       4.38      12.00
C      13.49       3.31       2.33
C      12.36       5.22      11.26
