14

C      -0.35       6.06      22.69
C      -0.52       6.85      23.82
S      -1.87       5.60      22.05
S       1.01       7.32      24.44
C      -1.90       7.04      24.13
H      -1.77       8.09      25.88
H      -3.39       7.61      25.42
H       0.90       4.89      20.60
H       2.50       5.33      21.07
N      -2.70       6.42      23.25
N       1.84       6.49      23.24
N      -2.40       7.76      25.16
N       1.53       5.12      21.36
C       1.04       5.87      22.37
