23

N       3.67       2.35       3.58
O       7.82       1.12       0.91
H       8.93       2.63       4.34
H       3.17       2.67       4.41
H       3.37       0.29       3.10
H       3.04       1.43       1.77
H       1.93       1.34       3.16
O       3.60       3.23       6.13
H       6.18       1.22       1.07
O       5.09       4.90       6.45
H       6.83       4.63       6.37
O       5.40       1.41       1.65
O       7.56       4.11       5.97
O       9.31       0.67       2.56
C       4.71       3.80       5.85
C       8.21       1.20       2.14
C       5.03       2.46       3.76
C       5.94       1.92       2.80
C       7.32       1.91       3.07
C       7.86       2.61       4.17
C       7.01       3.34       4.99
C       5.59       3.21       4.84
C       2.98       1.29       2.86
