30

C       7.29      10.38       7.55
I      16.51      12.28       6.66
H       8.78      15.04       6.45
O      14.43      17.50       6.46
O       6.24      10.64       6.97
O      12.50      17.35       7.63
H       7.30       9.68       8.42
H       7.61      12.92       6.91
H      11.92      10.48       7.07
H      15.55      15.29       6.70
H      13.56      11.48       6.76
H      10.87      16.34       6.40
O      11.05       8.32       7.42
O       8.79       8.23       7.39
C      13.44      16.85       6.94
C       8.56      12.40       6.95
C       9.83      10.35       7.25
C      14.63      14.71       6.69
C      14.67      13.30       6.68
C      13.50      12.57       6.73
C      12.24      13.21       6.73
C      12.19      14.63       6.68
C      11.01      12.45       6.84
C       9.76      13.13       6.78
C       9.90       8.86       7.37
C       9.74      14.54       6.57
C      10.90      15.27       6.54
C      11.00      11.06       7.05
C       8.58      11.03       7.22
C      13.41      15.37       6.73
