35

C       9.68       8.94       7.74
C      10.90      11.09       7.62
C      10.55      11.24       6.31
C       9.77      10.24       5.64
C       9.35       9.08       6.36
C       9.40      10.40       4.30
H       7.63       7.53       3.81
C      10.37       8.70      10.48
H       8.31       5.84       8.24
H       9.69      11.29       3.75
H      10.86      12.12       5.74
H      11.50      11.85       8.12
H      11.46      10.52      10.20
C       7.93       5.81      10.52
Br       7.41       5.44       5.56
N       9.08       6.67      10.67
O      11.57       9.61      12.32
O      10.50       7.66      12.61
H       9.45       6.71      11.63
H       7.62       5.50      11.53
H       8.14       4.89       9.95
H       7.09       6.33      10.03
O       8.46      10.82       1.77
O       7.29       8.89       1.77
C       8.11       9.73       2.30
C       9.53       7.68       9.89
C       9.24       7.80       8.48
C       8.60       8.07       5.67
C      10.82       8.65      11.87
C       8.27       6.90       6.43
C       8.57       6.77       7.75
C       8.23       8.27       4.33
C       8.61       9.43       3.67
C      10.82       9.79       9.71
C      10.47       9.95       8.37
