32

O       3.26      13.13      24.66
H       2.35      14.96      23.42
O       5.52      13.02      24.55
H       6.25      15.75      20.47
H       2.17      16.62      21.58
H       2.05      18.78      17.46
H       6.15      19.74      18.39
H       6.12      21.47      16.59
H       6.79      13.33      23.11
H       7.47      14.15      21.72
H       1.65      21.35      14.96
H       0.92      20.03      15.83
C       4.20      22.06      14.89
C       4.39      13.46      24.14
C       4.37      14.41      23.01
C       3.19      15.13      22.76
C       3.08      16.05      21.73
C       4.21      16.29      20.90
C       5.39      15.57      21.12
C       5.51      14.63      22.16
C       4.15      17.26      19.87
C       4.11      18.12      19.01
C       4.10      19.13      18.01
C       2.94      19.37      17.27
C       2.90      20.36      16.26
C       4.10      21.09      15.99
C       5.24      20.86      16.78
C       5.27      19.90      17.78
N       6.68      13.95      22.31
N       1.75      20.53      15.55
O       3.10      22.50      14.39
O       5.35      22.40      14.47
