30

C       7.33      16.60       7.34
C       6.32      17.41       7.72
H       5.41      12.28       7.33
H       8.15      21.57       9.02
Br       9.22      18.97       8.58
Br       4.58      14.88       6.34
H       3.93      21.30       8.32
H       9.53      12.73       8.43
H       5.34      16.95       7.88
H       8.32      17.03       7.17
O       8.58      10.50       8.89
O       4.75      23.56       9.11
O       6.39      10.30       8.36
O       7.02      23.70       9.10
H       9.40      15.16       7.88
H       4.20      18.89       7.74
C       7.48      10.95       8.44
C       5.92      23.06       9.00
C       7.45      12.37       7.98
C       6.03      21.59       8.69
C       6.28      12.92       7.46
C       7.29      20.98       8.72
C       6.21      14.28       7.14
C       7.44      19.64       8.40
C       7.31      15.14       7.35
C       6.33      18.84       8.02
C       8.52      14.52       7.76
C       5.07      19.49       8.01
C       8.60      13.18       8.08
C       4.91      20.83       8.34
