26

O       7.42       3.31      18.74
O      13.56       2.43      28.47
O       9.26       2.21      18.00
O      11.72       3.53      29.21
C       9.14       2.81      20.29
C      11.84       2.93      26.92
C       8.39       3.33      21.35
C      12.59       2.42      25.85
C       8.92       3.34      22.64
C      12.07       2.40      24.57
C      10.22       2.86      22.92
C      10.77       2.88      24.29
C      10.96       2.38      21.82
C      10.02       3.37      25.38
H       8.29       3.73      23.45
C      10.43       2.33      20.54
H      12.69       2.02      23.76
H       7.39       3.71      21.15
H      13.59       2.03      26.06
H      11.98       2.02      21.97
C       8.57       2.77      18.90
H      11.01       1.91      19.72
C      10.55       3.41      26.67
C      12.42       2.97      28.31
H       9.97       3.83      27.49
H       9.00       3.72      25.24
