28

H       0.82       5.36      12.56
H       0.88       5.37      15.06
H      -2.95       3.40      15.11
H       1.64       5.92      18.71
H      -2.17       3.91      18.86
H      -2.00       3.85      21.37
C      -0.01       4.55      22.92
C      -1.08       4.59      10.93
C      -1.11       4.44      12.42
C      -0.01       4.95      13.13
C       0.03       4.95      14.52
C      -1.05       4.41      15.23
C      -2.13       3.84      14.54
C      -2.17       3.86      13.15
C       0.85       5.45      19.30
C      -0.25       4.89      18.64
C      -1.30       4.31      19.39
C      -1.20       4.28      20.76
C      -0.07       4.77      21.45
C       0.95       5.39      20.69
N      -1.13       4.35      16.64
N      -0.19       4.95      17.24
Cl      -3.53       3.11      12.39
Cl       2.32       6.16      21.42
O      -1.14       4.46      23.52
O      -2.20       4.72      10.33
O       0.07       4.63      10.38
O       1.12       4.41      23.47
