34

C       3.38       9.42      34.65
C       3.44       8.19      34.67
C       3.46       6.78      34.71
C       4.66       6.01      34.72
C       4.58       4.62      34.75
C       3.35       3.96      34.77
C       2.16       4.71      34.77
C       2.22       6.10      34.75
H       5.69      13.36      34.77
H       5.56      10.92      34.72
H       1.38      13.61      34.64
H       5.50       4.05      34.76
H       1.19       4.21      34.80
H       1.29       6.66      34.75
C       0.80      11.09      34.52
C       6.06       6.57      34.69
O       4.78      15.66      34.82
O       2.51      15.79      34.75
O       2.20       1.87      34.82
O       4.47       1.88      34.80
O       0.61       9.77      34.32
O      -0.18      11.82      34.60
O       6.23       7.90      34.57
O       7.04       5.84      34.77
H       1.47       9.28      34.32
H       5.36       8.37      34.52
C       3.62      15.14      34.77
C       3.34       2.47      34.80
C       3.54      13.65      34.72
C       4.71      12.88      34.74
C       4.63      11.49      34.71
C       3.38      10.84      34.65
C       2.19      11.62      34.61
C       2.30      13.02      34.66
