16

O       0.86       4.54       2.66
C       0.11       7.75      -1.08
C       1.11       6.12       0.40
O      -0.86       9.21      -2.66
H       1.96       5.51       0.72
O       1.39       8.92      -2.70
C      -1.11       7.63      -0.39
H      -1.96       8.24      -0.72
C      -1.22       6.76       0.68
H      -2.16       6.66       1.22
C       1.22       6.99      -0.67
H       2.16       7.09      -1.22
C      -0.22       5.06       2.23
O      -1.39       4.83       2.70
C       0.22       8.69      -2.22
C      -0.11       6.00       1.08
