35

F       0.62       0.75      13.35
F      -1.01      -0.69      13.54
C       1.01      -1.16      14.77
C       0.31      -2.28      15.57
C       1.02      -3.47      15.80
C       0.44      -4.51      16.52
C      -0.86      -4.38      17.03
C      -1.56      -3.20      16.80
C      -0.99      -2.15      16.08
C      -1.48      -5.51      17.81
H       2.02      -3.58      15.40
C       1.73      -1.76      13.55
H       0.99      -5.43      16.70
C       3.00      -1.34      13.12
H      -2.57      -3.10      17.19
C       3.57      -1.90      11.98
H      -1.57      -1.24      15.93
C       2.87      -2.85      11.23
H       3.55      -0.57      13.66
C       1.60      -3.26      11.66
C       1.04      -2.73      12.81
H       4.55      -1.58      11.64
H       1.05      -3.99      11.06
C       3.46      -3.38       9.96
C       0.01      -0.09      14.21
H       0.06      -3.06      13.12
C       1.96      -0.45      15.77
O      -0.86      -6.58      17.95
O      -2.65      -5.24      18.28
O       2.69      -4.17       9.26
O       4.61      -3.05       9.59
F       3.01      -1.26      16.12
F       1.32      -0.15      16.95
F       2.49       0.71      15.31
F      -0.55       0.68      15.19
