36

N       1.75       6.19       8.81
N       2.81       6.61       8.07
H      -0.28       6.80       8.98
H       3.11       8.13       6.62
N      -4.47      19.58       7.60
H      -5.12      17.66       8.25
N      -3.37      20.03       6.90
H      -1.86      13.31       9.24
H      -2.95      11.17       7.73
O       0.98      12.42       8.50
H      -0.62      12.15       4.63
H      -3.22      12.91       5.50
H       0.48      14.30       6.11
H      -1.67      19.10       6.05
H       0.63      13.94       9.91
H       1.67      14.40       8.52
H       2.30      13.29       9.79
C      -3.17      17.79       7.11
C       0.68       6.96       8.50
C       2.42       7.64       7.29
C      -4.35      18.24       7.73
C       1.06       7.92       7.54
C      -2.19      11.88       7.38
C      -1.58      13.04       8.22
C      -2.67      16.48       7.05
C       0.33       9.06       7.13
C      -2.33      12.82       6.14
C      -1.72      14.02       6.98
C      -0.90      12.42       5.65
C      -0.75      11.44       6.89
C      -0.28      13.59       6.48
C      -0.14      12.64       7.72
C      -2.22      15.34       7.02
C      -0.22      10.13       6.92
C      -2.60      18.97       6.61
C       1.41      13.59       9.21
