22

H      25.41      14.60       5.59
H      26.80      14.93       4.54
H      26.87      13.35       7.07
H      28.23      13.77       6.01
H      25.60      11.36       6.84
H      25.86      10.21       5.51
H      24.09      12.62       5.43
H      24.35      11.42       4.15
H      26.91      11.40       3.45
C      25.31      13.50       2.76
C      25.82      13.04       4.11
C      26.27      14.14       5.08
C      27.22      13.36       6.03
C      27.20      11.94       5.43
C      25.84      11.28       5.77
C      24.86      12.07       4.86
C      28.44      11.12       5.76
N      27.09      12.26       3.98
O      24.81      12.59       2.01
O      25.40      14.74       2.48
O      29.56      11.72       5.63
O      28.27       9.92       6.15
