13

O       5.03       4.37      11.03
H       6.33       6.23      12.45
N       4.65       7.07      13.45
C       4.62       5.03      12.02
H       5.13       8.27      15.11
O       5.62       5.28      15.23
C       6.17       6.43      15.33
O       3.72       4.60      12.81
C       5.25       6.39      12.29
O       7.12       6.67      16.12
H       5.18       7.00      11.38
C       5.63       7.55      14.44
H       6.48       8.06      13.96
