44

H       6.73       6.73       1.85
H       6.44      10.02      -1.78
H       1.71       6.14      -3.41
H      10.06      12.47       3.85
H       7.90       6.46      -0.71
H       5.25      10.31       0.79
H       9.62       7.67      -2.13
H       9.00       9.19      -2.80
H      10.69       9.07      -2.26
H       9.33      10.30      -0.52
H       9.92       8.76       0.12
H       4.43       7.08       2.86
H       3.72       8.68       2.54
H       2.69       7.23       2.52
H       3.20       7.96       0.15
H       3.92       6.38       0.48
C       3.60       7.05      -4.23
C       8.33      11.12       4.35
C       7.84       8.79      -0.30
C       5.32       7.96       0.38
C       7.31       7.31      -0.37
C       5.83       9.45       0.44
C       4.45       7.26      -3.14
C       7.99      10.40       3.19
C       6.51       9.31      -0.96
C       6.66       7.47       1.04
C       5.97       7.82      -1.07
C       7.17       8.97       1.14
C       5.23       7.40      -2.20
C       7.68       9.67       2.26
C       3.83       7.30      -5.60
C       7.75      10.99       5.63
C       2.31       6.46      -4.25
C       9.36      12.05       4.57
C       9.24       9.20      -0.63
C       9.66       8.76      -2.03
C       3.97       7.45       0.76
C       3.68       7.62       2.25
N       2.81       6.86      -6.36
N       8.40      11.76       6.53
N       1.86       6.35      -5.51
N       9.41      12.41       5.88
Cl       5.19       8.04      -6.32
Cl       6.47       9.97       6.09
