28

C       6.00      12.41      18.81
H      -0.00      13.79      13.38
C       2.85      15.34      12.93
H       0.25      11.69      15.46
C       4.88      11.95      18.09
H       2.76      10.00      15.98
C       2.06      14.61      13.82
H       1.43      11.17      14.23
C       2.89      12.14      16.57
C       2.18      12.80      15.56
H       1.56      10.47      17.22
C       4.90      10.56      18.30
H       6.39      13.41      18.94
C       3.98      12.71      17.24
C       2.51      14.07      15.11
H       3.85      15.73      13.06
H       3.76      15.75      15.65
C       3.50      14.72      15.89
N       0.99      14.86      11.84
H       4.98      14.62      17.43
N       6.61      11.36      19.39
H       4.22       9.80      17.92
N       2.21      15.47      11.75
C       0.89      14.34      13.09
C       4.20      14.07      16.91
N       5.94      10.21      19.07
C       1.32      11.58      15.24
C       2.14      10.83      16.36
