24

N      33.11      20.91      14.78
N      33.11      30.07      21.26
H      35.65      23.58      16.67
H      30.57      23.58      16.67
H      30.57      27.40      19.37
H      35.65      27.40      19.37
O      34.53      25.49      18.02
O      31.69      25.49      18.02
C      33.82      22.59      15.98
C      34.56      23.57      16.66
C      33.83      24.52      17.34
C      32.40      22.59      15.98
C      31.66      23.57      16.66
C      32.40      24.52      17.34
C      32.40      28.39      20.07
C      31.66      27.41      19.38
C      32.40      26.46      18.71
C      33.82      28.39      20.07
C      34.56      27.41      19.38
C      33.83      26.46      18.71
N      34.21      21.53      15.22
N      32.01      21.53      15.22
N      32.01      29.45      20.83
N      34.21      29.45      20.83
