17

S      14.59      11.25      27.54
S      17.57       8.92      29.33
H      13.93       8.51      29.26
C      16.10      13.23      26.38
C      17.20      11.33      27.74
C      14.95       8.85      29.13
C      16.12      12.01      27.19
C      16.03       8.18      29.67
C      15.37      10.00      28.43
C      16.77      10.18      28.45
C      16.01       6.94      30.47
O      17.22      13.82      26.18
O      14.95      13.60      25.95
O      17.15       6.49      30.84
H      19.08      11.09      28.04
O      14.86       6.44      30.72
O      18.49      11.73      27.60
