40

H       1.74       4.74      11.59
H       0.71       0.37      16.18
H       0.08       9.35      15.06
H      -0.23       8.62      16.54
H       0.21       5.73      17.97
H       0.89       7.25      17.85
H      -0.45       4.20      11.79
H      -0.76       2.59      12.18
H       1.86       4.79      18.09
H       1.56       0.56      18.52
H      -0.02       1.44      14.06
H       1.38       9.35      13.41
H       2.19       8.97      11.10
C       2.62       6.57       9.88
C       1.07       5.92      13.29
C       1.04       7.24      13.83
C       0.74       4.79      14.12
C       0.79       4.97      15.53
C       0.64       6.30      16.05
C       0.66       7.41      15.20
C       0.31       3.51      13.61
C       0.30       2.41      14.46
C       0.72       2.50      15.80
C       0.97       3.80      16.37
C       0.93       1.35      16.61
C       1.41       1.45      17.90
C       2.25       2.89      19.82
C       1.53       3.85      17.66
C       2.03       6.82      11.22
C       1.74       2.71      18.43
C       1.41       8.33      13.00
C       1.88       8.13      11.72
C       1.60       5.74      11.99
N       0.40       8.67      15.74
N       0.30       6.56      17.39
N      -0.11       3.37      12.29
O       2.77       7.58       9.11
O       2.91       5.37       9.57
O       2.58       4.08      20.16
O       2.28       1.87      20.58
