32

C      14.10      18.22       1.10
C      15.09      17.23       1.18
C      15.57      16.75       2.43
C      14.17      18.17      -1.32
C      15.16      17.18      -1.29
C      15.72      16.61      -2.49
C      18.18      14.18      -1.10
C      17.18      15.17      -1.18
C      16.70      15.64      -2.43
C      18.11      14.24       1.32
C      17.12      15.22       1.29
C      16.54      15.79       2.49
C      13.65      18.69      -0.13
C      15.63      16.70      -0.03
C      18.64      13.72       0.13
C      16.64      15.70       0.03
O      12.24      20.19      -1.33
O      12.14      20.16       0.94
H      13.67      18.65       2.01
H      15.16      17.15       3.36
H      13.77      18.59      -2.25
H      18.61      13.76      -2.01
H      17.10      15.24      -3.36
H      18.52      13.82       2.25
O      20.17      12.28      -0.94
O      20.07      12.24       1.33
O      16.96      15.37       3.73
O      15.30      17.02      -3.73
H      14.59      17.67      -3.61
H      17.67      14.71       3.61
C      12.60      19.76      -0.18
C      19.71      12.67       0.18
