22

P       1.78       1.12       8.14
P       0.20      -0.35       2.15
H       1.99       3.29       7.92
H      -0.01      -2.53       2.37
H       3.77       0.13       6.82
H      -1.79       0.63       3.47
H      -0.64       1.41       6.70
H       2.62      -0.65       3.59
C       2.33       0.12       5.56
C      -0.35       0.64       4.73
C       1.39       0.72       6.44
C       0.59       0.05       3.85
C       0.08       0.97       6.02
C       1.90      -0.20       4.27
O       1.41       2.67       8.39
O       0.57      -1.90       1.90
O       3.29       0.92       8.31
O      -1.31      -0.16       1.98
O       0.89       0.34       9.08
O       1.09       0.43       1.21
O       3.62      -0.17       5.89
O      -1.63       0.93       4.40
