30

H       2.90      -3.22      10.71
H       1.76      -4.30       9.83
H       1.22      -2.69      10.40
C      -6.42      -3.83       5.46
C       2.31      -3.91       6.64
H      -5.60      -6.71       5.62
H      -5.09      -6.14       3.99
H      -6.01      -7.67       4.17
N      -8.57      -4.57       5.50
N       4.15      -4.05       7.96
N       4.34      -4.92       6.91
N      -8.53      -3.33       6.15
C       2.06      -3.26      10.00
C      -5.87      -6.66       4.56
C       1.00      -3.62       6.25
C      -5.04      -3.74       5.27
O      -7.15      -5.99       4.39
C      -1.56      -3.23       5.99
O       2.42      -2.62       8.75
C      -2.43      -3.76       5.08
F      -6.93      -1.77       6.70
C      -3.82      -3.70       5.14
C      -0.19      -3.41       6.05
F       3.15      -5.54       5.01
F      -1.90      -4.50       4.05
F      -2.12      -2.49       7.01
C       2.95      -3.47       7.83
C      -7.33      -4.86       5.09
C       3.26      -4.81       6.13
C      -7.27      -2.93       6.12
