28

C       8.19       8.03      21.22
C       7.22       8.81      20.51
C       9.14       7.31      20.52
C       6.25       9.62      21.16
C       5.36      10.41      20.46
C       8.26       8.06      18.39
C       9.18       7.32      19.12
C       7.27       8.83      19.08
C       6.37       9.67      18.39
C       5.43      10.45      19.03
H       6.20       9.61      22.25
H       6.42       9.67      17.30
H       9.94       6.75      18.59
H       9.88       6.74      21.08
O       9.50       8.34      16.41
O       7.27       7.99      16.24
O       7.12       7.85      23.33
O       9.36       8.24      23.25
O       4.53      12.48      21.47
O       3.49      10.56      21.94
O       4.65      11.43      16.91
C       8.35       8.12      16.90
O       3.47      11.78      18.78
H       5.23      12.80      20.87
H       5.51      11.08      16.58
C       8.22       8.04      22.72
C       4.35      11.14      21.31
C       4.45      11.27      18.25
