14

H       1.08      20.70      12.75
H      -1.34      19.99      12.35
H      -1.08      21.29       8.38
H       1.34      22.00       8.77
H       0.96      19.50      11.47
N       1.38      21.43      10.80
H      -0.96      22.50       9.66
C       0.68      20.52      11.74
H       1.11      20.28       9.07
C      -0.68      21.47       9.38
H      -1.11      21.71      12.06
C       0.83      21.28       9.42
C      -0.83      20.71      11.70
N      -1.38      20.57      10.33
