12

O      11.99      11.63       8.78
C      10.84      12.03       8.38
O      10.84      19.77       2.26
O      10.85      18.16       0.63
C      10.84      16.67       3.72
C      10.84      18.56       1.84
C      10.84      17.54       2.85
C      10.84      15.73       4.67
C      10.84      14.86       5.55
C      10.84      13.91       6.49
O       9.70      11.63       8.78
C      10.84      13.05       7.36
