48

O       1.46       6.22       8.27
O      -4.76       7.14      -3.79
O      -5.30       5.44      -2.38
C       8.10       7.64      -2.86
C       6.76       7.61      -2.24
C       6.51       8.37      -1.09
C       5.29       8.27      -0.43
C       4.29       7.40      -0.91
C       4.54       6.66      -2.08
C       5.76       6.75      -2.73
C       3.01       7.26      -0.19
C       2.96       7.34       1.21
C       1.76       7.13       1.90
C       0.60       6.84       1.18
C       0.61       6.80      -0.22
C       1.82       7.00      -0.89
C      -0.65       6.60      -0.96
C      -1.62       5.69      -0.50
C      -2.84       5.56      -1.15
C      -3.13       6.35      -2.27
C      -2.16       7.24      -2.76
C      -0.93       7.35      -2.11
C       1.72       7.20       3.38
C       2.25       8.31       4.06
C       2.20       8.37       5.45
C       1.67       7.30       6.18
C       1.15       6.19       5.51
C       1.16       6.14       4.12
C       1.66       7.34       7.67
C      -4.49       6.30      -2.86
H       7.28       9.04      -0.71
H       5.11       8.86       0.46
H       3.79       5.96      -2.44
H       5.97       6.15      -3.62
H       3.88       7.52       1.77
H      -0.34       6.71       1.72
H       1.84       6.96      -1.98
H      -1.41       5.07       0.38
H      -3.60       4.86      -0.79
H      -2.39       7.85      -3.63
H      -0.20       8.07      -2.47
H       2.68       9.13       3.49
H       2.59       9.24       5.97
H       0.75       5.36       6.09
H       0.76       5.28       3.60
O       8.35       6.79      -3.79
O       8.94       8.51      -2.41
O       1.87       8.46       8.23
