12

C      -3.86       7.17       7.72
C       2.45      13.91       7.72
C      -2.88       8.21       7.72
C       1.47      12.87       7.72
C      -2.04       9.11       7.72
C       0.63      11.97       7.71
C      -1.13      10.09       7.72
C      -0.28      10.99       7.71
O      -3.77       6.31       8.66
O      -4.72       7.20       6.77
O       2.36      14.77       8.66
O       3.31      13.88       6.77
