16

C       3.82       2.91       5.80
C       4.88       2.51       2.37
C       1.55       4.10       6.18
S       2.56       3.69       3.65
S       6.14       1.73       4.54
C       2.66       3.55       5.38
O       7.01       1.45       0.71
O       8.09       0.79       2.62
O       0.60       4.64       5.50
C       6.03       1.87       2.80
O       1.63       3.99       7.44
C       4.07       2.89       3.46
C       4.63       2.53       4.70
C       7.12       1.33       1.98
Cl       4.28       2.58       7.41
H       4.67       2.67       1.31
