14

Cl       1.06       5.91       7.86
H      -1.64       5.22       8.43
C      -0.90       5.16      10.54
C      -0.89       6.12      12.55
C       0.54       6.17      12.50
C       0.48       5.22      10.48
C       0.53       4.72       9.04
C      -1.08       4.60       9.14
F       1.15       3.52       8.83
F      -1.53       3.30       9.08
F      -1.48       6.61      13.62
F       1.16       6.69      13.53
N      -1.62       5.61      11.58
N       1.24       5.72      11.47
