32

N       1.44      13.08      14.82
N      -0.98      12.47      13.70
N       1.40      12.19      13.85
N      -0.93      13.37      14.67
H      -1.72      16.63      18.19
H       2.18       8.93      10.34
H       2.47      14.55      16.48
H      -2.01      11.01      12.04
O      -0.66      17.90      19.95
O       1.12       7.66       8.57
H       2.55      16.22      18.36
H      -2.08       9.33      10.16
O       1.60      17.80      19.98
O      -1.14       7.76       8.55
H      -1.81      14.96      16.30
H       2.27      10.59      12.22
C       0.46      17.48      19.52
C       0.01       8.08       9.01
C      -0.81      16.16      17.80
C       1.28       9.40      10.72
C      -0.86      15.24      16.76
C       1.32      10.32      11.76
C       0.33      14.65      16.29
C       0.14      10.91      12.23
C       1.56      15.01      16.86
C      -1.10      10.55      11.66
C       1.60      15.93      17.90
C      -1.14       9.62      10.62
C       0.42      16.51      18.38
C       0.05       9.05      10.14
C       0.19      11.90      13.31
C       0.28      13.66      15.21
