31

O       3.11       9.22       6.18
O       1.06       8.38       6.73
H       3.00       4.39       0.44
H       2.83       7.79       3.77
H       3.06       6.55       1.69
H       2.48       2.25       4.13
H       2.52       4.54       9.72
H       2.73       2.30       6.07
H       2.63       2.35       8.52
H       0.99       9.21       7.26
C       2.54       6.94       8.79
C       2.95       5.60       2.22
C       2.72       3.21       2.24
C       2.55       4.51       8.63
C       2.61       3.28       7.95
C       2.66       3.26       6.57
C       2.64       4.45       5.81
C       2.58       5.71       6.49
C       2.70       4.41       4.36
C       2.83       5.62       3.63
C       2.78       6.86       4.34
C       2.59       6.92       5.69
C       2.62       3.20       3.62
C       2.90       4.41       1.53
C       2.55       5.71       7.92
C       2.65       1.93       1.47
C       2.32       8.28       6.23
O       3.66       7.49       9.06
O       1.42       7.29       9.26
O       3.76       1.38       1.18
O       1.50       1.49       1.14
