20

S      17.97      13.36       4.94
S      18.81       9.68       3.17
N      15.82       9.97       4.68
N      20.77      13.20       3.07
C      15.58      12.88       6.17
C      21.25      10.14       2.02
O      14.82      12.05       6.76
O      15.60      14.15       6.30
O      20.96       9.05       1.41
O      22.38      10.71       2.08
O      16.32       8.83       4.53
O      14.61      10.21       4.74
O      20.71      14.06       3.97
O      21.41      13.30       2.02
C      16.78      11.06       4.72
C      19.94      12.02       3.29
C      16.62      12.33       5.27
C      20.12      10.74       2.77
C      18.76      12.12       4.06
C      18.02      10.93       4.05
