26

C      15.92      11.44      16.01
O      16.87      13.33      14.94
C      15.93      10.70      14.81
O      16.40      13.45      17.16
C      15.41       9.42      14.77
C      16.44      12.84      16.04
H      13.93       4.70      17.86
H      14.82       7.02      17.92
H      13.62       7.56      13.82
H      12.81       5.22      13.75
H      14.38       9.15      18.00
H      15.35      11.44      18.08
H      16.37      11.16      13.92
H      15.45       8.85      13.84
C      12.84       3.39      15.78
O      12.86       2.77      16.89
C      13.32       4.81      15.81
C      13.87       5.34      16.98
C      14.35       6.64      17.01
O      12.45       2.91      14.67
C      14.29       7.46      15.87
C      13.71       6.93      14.70
C      13.24       5.63      14.67
C      14.84       8.83      15.91
C      14.83       9.58      17.11
C      15.37      10.86      17.15
