20

H       5.32      10.88      11.35
H       5.14       9.17       7.58
H       2.65       9.18       7.59
H       2.82      10.95      11.54
C       4.68      10.52      10.55
H       0.88      10.69       7.46
C       4.59       9.58       8.43
C       3.20       9.59       8.44
H       0.80       9.75      11.68
C       3.29      10.55      10.64
H      -1.69       9.92      11.58
C       2.52      10.10       9.55
H      -1.63      10.81       7.54
C       1.05      10.19       9.57
C       0.35      10.49       8.39
C       0.31       9.99      10.74
C      -1.07      10.07      10.69
C      -1.03      10.57       8.43
N       5.31      10.06       9.45
N      -1.74      10.35       9.56
