28

H       8.66       6.58      12.34
H       8.49       6.71      14.83
H      12.69       5.75      15.12
H       7.41       6.91      18.51
H      11.60       5.95      18.79
H      11.44       6.08      21.29
C       9.34       6.65      22.81
C      10.76       6.01      10.82
C      10.75       6.11      12.31
C       9.53       6.41      12.96
C       9.44       6.48      14.34
C      10.58       6.24      15.13
C      11.80       5.95      14.51
C      11.87       5.88      13.12
C       8.29       6.71      19.12
C       9.52       6.42      18.50
C      10.66       6.18      19.28
C      10.56       6.25      20.66
C       9.35       6.55      21.31
C       8.23       6.78      20.50
N      10.62       6.26      16.54
N       9.48       6.40      17.09
O      10.47       6.54      23.38
O      11.87       5.81      10.24
O       9.63       6.12      10.25
O       8.22       6.85      23.39
F      13.08       5.57      12.59
F       7.02       7.09      21.04
