40

O      -0.45      -6.83      18.81
O      -0.64      -4.52      17.43
O       4.10      -5.83      19.97
O       3.89       1.52      15.43
H       3.77      -3.74      18.51
H       3.31      -3.37      15.94
H       0.00       0.23      16.76
H      -0.04      -1.82      18.16
H      -0.41       0.59      14.16
H      -0.51       2.69      12.81
H       3.59       3.52      13.85
H      -1.31      -6.33      18.88
H      -0.51      -3.73      16.88
H       3.90      -6.70      20.46
H       3.78       0.70      15.95
C       1.52       4.42      12.36
C       0.59      -5.98      18.84
C       0.54      -4.78      18.10
C       1.67      -3.96      17.99
C       2.87      -4.35      18.61
C       2.92      -5.51      19.38
C       1.77      -6.32      19.56
C       2.59      -2.58      16.14
C       2.59      -1.43      15.35
C       1.67      -0.38      15.56
C       0.72      -0.57      16.58
C       0.69      -1.72      17.36
C       1.64      -2.74      17.16
C       0.46       1.24      14.08
C       0.40       2.40      13.33
C       1.54       3.21      13.22
C       2.71       2.88      13.91
C       2.75       1.73      14.70
C       1.64       0.87      14.76
C       1.77      -7.41      20.55
Br       3.83      -1.38      13.89
O       2.64       4.95      12.06
O       0.38       4.84      11.97
O       2.93      -7.79      21.02
O       0.67      -7.89      20.95
