38

C      -1.01       7.48       9.37
H      -5.91       7.95      16.23
H      -4.55      10.07      11.29
N      -6.22       6.96      20.76
H      -8.07       6.01      20.95
H      -9.00       6.98      18.86
N      -6.82       8.40      16.03
H      -5.21       8.98      18.27
N      -4.78       9.19      11.75
N      -0.51       8.71       9.14
H      -4.47       8.03      20.46
O      -8.81       9.06      17.01
H      -4.89       8.57      14.33
O      -4.16       7.01      12.12
H      -9.14       9.08      14.76
H      -9.29       9.73      12.35
H      -7.25       9.76      10.93
H      -0.65      10.75       9.50
H      -2.65      10.57      10.96
H      -2.48       6.27      10.37
H      -0.51       6.66       8.85
C      -7.47       6.68      20.34
C      -7.98       7.21      19.17
C      -7.16       8.01      18.37
C      -5.88       8.33      18.84
C      -5.45       7.80      20.05
C      -7.68       8.54      17.07
C      -5.85       8.82      13.90
C      -7.01       8.79      14.69
C      -8.25       9.11      14.14
C      -8.32       9.48      12.79
C      -7.18       9.51      11.99
C      -5.95       9.17      12.55
C      -3.94       8.14      11.63
C      -1.10       9.78       9.72
C      -2.21       9.66      10.53
C      -2.73       8.38      10.78
C      -2.11       7.28      10.19
