18

H       0.67       0.63       8.04
H      -3.43       0.76       9.32
H       0.56      -1.88       8.00
N      -3.81      -1.84       9.41
O      -2.54      -4.08       8.76
O      -2.49       2.92       8.77
H      -3.92      -2.84       9.27
H      -4.62      -1.27       9.60
O      -0.22       2.89       8.63
C      -1.43      -3.45       8.67
O      -0.28      -4.02       8.62
C      -1.36       2.32       8.71
C      -1.47      -1.98       8.67
C      -1.38       0.83       8.70
C      -2.64      -1.25       9.04
C      -0.23       0.10       8.33
C      -2.56       0.17       9.04
C      -0.30      -1.28       8.31
