10

O       9.84      11.84      18.11
C       9.27      11.85      19.26
O       9.84      11.86      20.41
C       4.04      11.85      19.26
O       2.04      10.71      19.28
C       5.27      11.85      19.26
O       2.04      13.00      19.24
C       6.61      11.85      19.26
C       7.83      11.85      19.26
C       2.61      11.85      19.26
