28

C       1.99      30.86      24.17
C       1.99      41.86      17.82
F       2.02      39.32      16.54
F       1.96      41.70      20.66
F       1.98      39.36      22.01
F       1.99      36.98      17.89
F       1.98      33.37      19.98
F       1.99      35.74      24.09
F       2.02      33.40      25.45
F       1.96      31.02      21.33
C       1.99      40.56      18.57
C       2.02      39.34      17.88
C       2.00      38.14      18.58
C       1.99      38.10      19.99
C       1.97      39.34      20.67
C       1.96      40.54      19.97
C       1.99      36.89      20.69
C       1.99      35.83      21.30
C       1.99      34.62      22.00
C       1.97      33.38      21.32
C       1.96      32.18      22.02
C       1.99      32.16      23.42
C       2.01      33.38      24.10
C       2.00      34.59      23.41
O       1.05      30.05      23.91
O       2.93      30.68      25.00
O       1.05      42.68      18.08
O       2.93      42.04      16.98
