18

N       4.51       7.69       1.09
H      -1.74       5.65       2.00
C       0.09       7.97       1.36
C       0.98       7.08       1.85
N      -3.26       7.64      -0.03
C       3.35       6.23       2.25
C      -2.01       6.49       1.37
H       0.46       8.93       0.97
C       2.42       7.17       1.77
H       0.60       6.13       2.24
C       3.22       8.07       1.05
H       3.18       5.34       2.85
C      -2.16       8.37       0.21
C      -1.30       7.67       1.09
H       2.93       8.95       0.47
H      -2.02       9.34      -0.26
N      -3.17       6.49       0.70
N       4.60       6.54       1.84
