23

H       0.38       2.39       3.18
H       4.41       4.82       4.72
H       4.33       3.74       0.78
H       6.07       3.55       1.14
H       6.07       5.69       2.43
H       5.52       5.95       0.75
H       4.34       5.92       2.09
H       0.20       3.97       5.09
C       2.24       5.44       6.18
C       1.16       3.81       4.59
C       1.26       2.93       3.52
C       2.48       2.71       2.85
C       3.62       3.42       3.30
C       3.52       4.29       4.38
C       2.30       4.49       5.03
C       2.50       1.72       1.74
C       5.12       3.98       1.51
C       5.27       5.47       1.71
O       1.09       5.72       6.66
O       3.35       5.88       6.61
O       1.38       1.45       1.18
O       3.62       1.20       1.42
O       4.87       3.26       2.74
