40

O       8.25      10.09       9.77
O       5.89      21.93       9.60
H       8.73      16.56       6.39
H       6.97      16.52       6.02
H       8.07      15.32       5.27
H       7.16      15.50      13.34
H       5.41      15.46      12.97
H       5.51      16.95       8.02
H       6.06      16.70      14.09
H      10.33      15.20       8.09
H      10.67      15.26       9.85
H      11.53      16.38       8.73
H       3.46      16.76       9.51
H       3.80      16.82      11.27
H       2.60      15.64      10.63
H       8.62      15.07      11.34
C       7.07      10.57       9.77
C       8.34      16.40       9.38
C       6.99      14.64       9.69
C       7.14      17.38       9.67
C       6.96      13.23       9.71
C       7.17      18.79       9.65
C       7.06      21.45       9.59
C       6.19      16.51       8.75
C       7.94      15.51      10.61
C       7.88      15.90       6.17
C       7.38      15.53       8.44
C       6.26      16.12      13.19
C      10.58      15.87       8.93
C       3.55      16.15      10.43
C       6.75      16.49      10.92
C       6.98      12.01       9.75
C       7.16      20.01       9.61
C       5.79      15.62       9.98
O       5.97       9.92       9.79
O       7.67      14.95       7.23
O       8.16      22.10       9.58
O       6.46      17.07      12.13
O       9.59      16.90       9.09
O       4.54      15.12      10.27
