9

C       2.35       8.60       5.68
H       3.46      10.06       7.01
O       3.30       6.51       5.10
O       4.60       8.36       4.86
H       2.22       9.48       5.02
O       2.81       8.45       8.08
O       1.19       7.80       5.77
C       3.53       7.78       5.14
C       2.90       9.09       7.06
