22

C       9.10       3.03       9.03
C       3.32      10.21       4.27
C       7.96       3.75       9.46
C       4.44       9.39       3.96
H       7.60       6.75       5.99
H       5.72       7.66       8.27
H       6.42       3.00      10.92
H       5.09       8.78       1.89
N       8.04       1.71      10.43
N       3.36      10.01       2.08
H       9.88       3.36       8.35
N       9.13       1.82       9.61
H       2.96      10.53       5.24
N       2.70      10.57       3.14
C       7.52       5.00       9.00
C       5.32       8.77       4.85
C       6.51       7.08       7.78
C       6.80       7.33       6.46
C       7.10       6.03       8.49
C       6.05       8.18       5.63
C       7.34       2.86      10.35
C       4.41       9.31       2.55
