36

C       6.95       7.07      15.95
C       7.03       8.08      15.00
C       6.64       5.15      20.43
C       6.04       5.06      21.67
H       6.01      10.28      13.24
C       7.85       5.86      20.28
C       7.88       6.25      22.67
C       9.06      11.18      14.02
C       8.50       6.34      21.43
C       8.07      10.20      14.17
C       6.61       5.68      22.81
H       3.90       4.75      23.62
H       6.99       7.14      25.47
N       7.31      11.87      12.81
N       4.04       5.82      25.44
N       5.03       6.58      26.02
N       7.60       6.18      18.06
N       8.37       6.32      19.06
N       8.59      12.17      13.22
H       5.08       4.55      21.76
H       6.15       4.74      19.54
H       6.09       6.41      16.00
H       6.22       8.20      14.27
H       8.38       6.70      23.54
H       9.88       7.64      17.59
H       9.45       6.85      21.30
H      10.03       9.42      15.88
H      10.06      11.23      14.43
C       7.00      10.70      13.39
C       4.52       5.37      24.26
C       6.10       6.58      25.20
C       5.83       5.82      24.04
C       8.10       9.00      15.00
C       9.16       8.76      15.90
C       9.09       7.76      16.85
C       7.94       6.95      16.94
