36

H      -0.09       7.01       8.33
H       6.12       3.43      16.94
C       2.16       4.41       8.30
C       2.74       4.08      16.97
H       0.27       4.77       7.30
H       4.00       2.62      17.97
C       3.10       4.95       9.15
C       2.73       5.16      16.12
H       2.30       3.43       7.86
H       1.82       3.71      17.41
C       2.93       6.22       9.74
C       3.92       5.64      15.53
H       4.01       4.40       9.39
H       1.80       5.67      15.88
C       3.98       6.71      10.55
C       3.83       6.80      14.72
H       4.88       6.11      10.68
H       2.85       7.28      14.59
C       5.07       8.45      11.89
C       4.78       8.61      13.38
H       5.27       9.44      11.47
H       5.54       9.29      13.80
N       3.96       7.88      11.16
N       4.84       7.36      14.11
H       5.96       7.82      11.74
H       3.80       9.07      13.53
H       3.09       8.43      11.03
H       5.76       6.90      14.24
O       1.53       8.14      10.04
O       6.29       5.40      15.23
C       1.73       6.98       9.47
C       5.18       4.99      15.80
C       0.80       6.43       8.55
C       5.17       3.91      16.72
C       1.01       5.18       8.00
C       3.98       3.46      17.27
