27

C      10.94       3.05       7.92
C       9.61       2.77       8.54
C       9.24       1.45       8.83
C       8.73       3.82       8.85
H       9.92       0.63       8.57
C       7.52       3.56       9.49
C       8.03       1.18       9.46
H       9.02       4.84       8.61
H       6.83       4.36       9.77
C       7.20       2.24       9.81
H       7.75       0.16       9.73
C       6.14       2.03      11.90
C       7.35       2.28      12.57
H       8.27       2.43      12.00
C       4.96       1.84      12.63
H       4.03       1.65      12.10
C       4.99       1.92      14.01
H       4.07       1.79      14.59
C       7.37       2.34      13.95
H       8.30       2.54      14.48
C       6.19       2.16      14.70
C       6.24       2.20      16.18
O      11.70       2.06       7.70
O      11.20       4.27       7.67
O       6.03       1.97      10.53
O       7.34       2.30      16.79
O       5.11       2.10      16.81
