10

C      -8.76      -3.39      13.79
C      -8.76      -8.91      17.56
C      -8.76      -4.59      14.61
O      -8.77      -2.29      14.42
C      -8.76      -5.60      15.29
O      -8.75      -3.58      12.53
C      -8.76      -6.71      16.05
C      -8.76      -7.72      16.74
O      -8.75     -10.02      16.93
O      -8.77      -8.73      18.82
