26

O      -7.09      12.03       7.28
H      -4.23      12.82       2.51
H      -6.79       9.87       5.57
H      -5.46       8.88       3.69
O      -4.46       9.09       1.41
O      -3.01      10.85       1.38
O      -8.35      12.97       5.63
H      -3.47      14.32       4.45
H      -3.31      16.79       4.26
H      -5.37      18.14       3.89
H      -7.58      17.00       3.74
H      -7.73      14.54       3.93
C      -4.03      10.21       1.85
C      -7.32      12.36       6.06
C      -4.81      12.18       3.18
C      -5.62      12.77       4.16
C      -6.34      11.90       5.02
C      -6.24      10.51       4.88
C      -5.49       9.95       3.85
C      -4.77      10.80       2.99
C      -5.61      14.26       4.21
C      -4.37      14.91       4.29
C      -4.28      16.30       4.18
C      -5.43      17.06       3.97
C      -6.67      16.42       3.89
C      -6.76      15.03       4.01
