21

H       5.76       9.37       1.82
H       7.82       8.72       3.68
H       6.40      11.50       6.19
H       4.36      12.15       4.32
H       3.88       9.33       3.97
H       9.18      11.12       4.51
C       5.97       8.55       6.12
C       7.05       9.48       3.81
C       5.90       9.83       2.81
C       6.16      11.38       3.02
C       7.31      11.02       4.03
C       6.26      11.04       5.21
C       5.11      11.37       4.19
C       4.85       9.84       3.98
C       6.00       9.50       4.98
C       6.16      12.32       1.88
O       7.11       8.19       6.56
O       4.82       8.25       6.59
O       5.01      12.70       1.48
O       7.30      12.61       1.38
O       8.54      11.65       3.99
