10

O       2.71       8.22      12.05
C       3.56       6.25      12.88
O       7.09       1.58      13.70
C       6.24       3.56      12.88
O       1.60       7.10      13.71
O       8.23       2.72      12.07
C       5.38       4.43      12.88
C       4.43       5.38      12.88
C       2.55       7.26      12.88
C       7.26       2.55      12.88
