18

O      15.94      10.40       9.77
O      12.21       6.52       8.81
H      16.66       5.64       8.34
O      12.41       8.65       8.03
H      17.91      10.93       9.78
O      18.62       6.05       8.74
O      22.51       9.60       9.43
O      22.08       7.47       8.73
C      12.87       7.57       8.49
C      21.75       8.61       9.15
C      20.32       8.79       9.31
C      14.30       7.56       8.69
C      17.69       8.80       9.34
C      16.88       7.72       9.00
C      15.49       7.77       8.89
C      19.10       8.74       9.34
C      17.45       6.36       8.66
C      17.13      10.14       9.65
