16

O      -3.70       2.67       7.55
O      -3.75      -0.61      15.55
O      -6.03      -0.50      15.57
O      -5.98       2.78       7.57
H      -6.99       0.34      13.21
H      -2.74       1.82       9.90
C      -4.84       2.51       8.10
C      -4.89      -0.35      15.02
C      -5.97       0.50      12.87
C      -3.76       1.65      10.24
C      -4.87       0.20      13.66
C      -4.86       1.95       9.45
C      -4.16       1.12      11.48
C      -5.57       1.03      11.63
S      -3.35       0.56      12.90
S      -6.38       1.59      10.22
