10

C       9.50       4.88      21.11
C      10.71       6.50      22.90
C      10.90       4.97      21.17
C       9.32       6.41      22.83
H      11.22       7.14      23.62
H      11.55       4.41      20.51
H       8.66       6.97      23.48
Br       8.76       3.70      19.85
N       8.73       5.60      21.93
N      11.48       5.78      22.06
