52

H       0.65       0.59      15.00
H       0.19       8.67      24.85
H       4.92       8.25      17.24
H       2.66       8.83      14.17
H       4.90       5.15      21.09
H       2.56       0.99      18.63
C       2.49       4.88      18.97
C       1.34       4.95      19.69
C       0.77       4.63      23.96
C       2.42       4.79      17.48
C       0.52       4.45      25.43
C       2.45       4.46      13.18
C       2.37       4.58      14.69
C       1.95       3.50      15.47
C       1.98       3.60      16.87
C       1.42       2.30      14.74
C       0.27       7.14      21.25
C       2.86       5.87      16.68
C       2.05       2.56      24.01
C      -0.19       6.91      24.14
C       0.09       5.15      19.02
C       3.48       7.04      17.38
C       2.27       2.62      21.21
C       3.08       6.96      14.37
C       3.88       4.88      19.53
C       1.66       2.44      17.78
C       2.78       5.79      15.28
C       1.63       3.71      21.87
C       1.44       3.61      23.26
C       0.41       5.80      23.30
C       0.63       5.93      21.91
C       1.21       4.87      21.17
N      -0.03       8.14      20.73
N       2.63       1.81      24.68
N      -0.95       5.36      18.53
N       2.79       1.68      20.75
O       1.04       5.32      26.18
O       3.51       3.91      12.75
O      -0.15       3.42      25.75
O       1.50       4.99      12.53
O       1.34       2.22      13.53
O       1.00       1.31      15.56
O      -1.21       6.69      24.80
O       0.51       8.02      24.12
O       3.10       7.47      18.46
O       4.55       7.52      16.71
O       3.72       6.87      13.33
O       2.49       8.09      14.81
O       4.86       4.68      18.83
O       3.95       5.17      20.85
O       0.61       2.32      18.40
O       2.72       1.63      17.89
