22

H       7.70      10.09       6.60
N       3.19      12.88      10.02
N       8.94       8.13       3.34
H       3.02      10.81       9.61
N       7.93       7.17       3.35
N       4.21      13.79       9.99
F       5.70       7.52       7.17
F       4.44       9.04       8.75
F       7.12      11.34       8.31
F       6.47      13.79       9.47
F       9.63       9.86       4.69
F       6.16       6.58       4.68
C       8.79       8.84       4.45
C       6.27       8.75       7.29
C       7.26       9.12       6.43
C       5.62       9.57       8.29
C       5.31      13.13       9.60
C       5.91      10.83       8.70
C       5.04      11.77       9.35
C       3.66      11.67       9.65
C       7.23       7.36       4.47
C       7.72       8.43       5.26
