25

N      -3.29       9.76       1.39
C      -1.71      11.23       0.41
N      -4.18       9.72       2.39
H      -1.19      13.23       0.94
N      -3.12      11.74       2.45
C      -1.02      12.43       0.23
H       0.42      13.47      -1.00
N      -1.53      10.15      -0.42
C      -0.13      12.55      -0.83
H       0.75      11.49      -2.51
C       0.06      11.45      -1.67
N      -6.64      12.12       6.19
H      -0.54       9.39      -2.07
C      -0.65      10.27      -1.44
H      -3.75      13.06       4.70
C      -4.87      11.29       4.15
H      -5.32      13.70       6.50
C      -4.62      12.44       4.91
H      -7.76      10.42       5.73
C      -5.51      12.81       5.91
H      -6.22       9.60       3.97
C      -6.85      10.97       5.49
C      -2.68      10.98       1.44
C      -6.00      10.52       4.51
C      -4.05      10.92       3.02
