42

C       2.83       6.98       0.43
N       7.23       9.50      -0.28
H      -3.60       5.56       2.74
C       3.57       6.29      -0.56
C       1.52       6.52       0.84
N       0.96       5.40       0.28
N       7.49       7.80      -1.73
C      11.75      11.43      -1.02
C       8.49       9.65      -0.81
H       3.17       5.38      -1.01
N       0.70       7.10       1.73
H       6.76      10.21       0.31
H       9.36      11.37       0.18
H       9.99       7.64      -3.15
O      -3.34       2.50       0.19
O      12.90      11.34      -1.56
C      -1.65       6.44       2.45
H       1.43       4.69      -0.31
O      11.53      12.40      -0.19
H       2.81       8.70       1.73
O      -4.71       3.57       1.56
C       8.63       8.58      -1.73
C      -0.30       5.25       0.81
C      -0.44       6.32       1.73
C      -2.48       4.44       1.29
H      -1.81       7.26       3.15
C       9.84       8.47      -2.45
C      -2.64       5.49       2.23
H      -1.18       3.53      -0.18
H       5.01       9.52       1.01
C       4.62       8.61       0.56
C      10.83       9.41      -2.23
C      -3.57       3.47       1.02
C       6.67       8.39      -0.84
H      11.79       9.34      -2.74
H       5.38       6.21      -1.73
C       4.81       6.75      -0.98
C      -1.29       4.32       0.56
C       9.48      10.58      -0.56
C      10.67      10.46      -1.29
C       5.35       7.92      -0.43
C       3.38       8.15       0.98
