20

H      25.10       8.84      10.77
H      23.35       9.77       9.28
H      21.13      12.30      13.45
H      20.24      10.76      13.53
H      22.03       9.81      15.04
H      22.92      11.35      14.96
C      25.22       8.91      13.49
O      25.05       9.07      14.75
O      26.20       8.31      12.93
C      21.08      11.11       9.98
O      21.24      10.95       8.73
O      20.11      11.70      10.56
C      22.13      10.56      10.88
C      24.16       9.48      12.61
C      22.06      10.67      12.27
C      24.24       9.36      11.20
C      23.05      10.15      13.11
C      23.26       9.88      10.37
C      21.24      11.21      13.42
C      22.36      10.61      14.37
