30

H       3.23       4.56       4.85
H       3.01       4.75       2.36
H       7.47       5.26       4.55
H       2.82       5.27      -4.49
H       7.07       5.90      -4.76
H       7.27       5.71      -2.28
H       7.22       5.56       1.00
H       3.05       4.96      -0.94
C       4.86       5.72      -6.25
C       5.45       4.77       6.31
C       5.36       4.88       4.83
C       4.10       4.74       4.22
C       3.98       4.84       2.84
C       5.12       5.09       2.05
C       6.39       5.24       2.68
C       6.50       5.14       4.07
C       5.08       5.19       0.65
C       5.19       5.30      -0.57
C       5.15       5.41      -1.98
C       3.89       5.27      -2.62
C       3.79       5.37      -4.00
C       4.94       5.61      -4.76
C       6.19       5.73      -4.14
C       6.30       5.63      -2.76
O       3.71       5.63      -6.80
O       4.36       4.55       6.93
O       6.60       4.89       6.85
O       5.96       5.93      -6.85
O       7.50       5.50       1.94
O       2.77       5.03      -1.88
