36

Cl      15.35       7.19       4.60
O      11.83      11.08       5.88
O      10.55      12.94       5.61
H      14.54      20.09       4.78
H      16.41      18.50       5.24
H      16.11      16.08       4.80
H      12.10      16.82       3.42
H      12.39      19.24       3.87
H      12.15      14.79       5.16
H      15.25      12.03       2.47
O      16.85      13.87       2.03
H      12.92       6.66       3.20
O      15.57      15.73       1.72
H      11.19       8.22       2.30
H      15.17      10.03       4.66
H      11.46      10.68       2.57
C      15.46      18.13       4.84
C      15.30      16.77       4.59
C      14.08      16.28       4.08
C      13.04      17.19       3.83
C      13.21      18.55       4.07
C      14.42      19.03       4.58
C      12.83      14.20       4.55
C      12.64      12.81       4.51
C      13.52      12.00       3.76
C      14.57      12.62       3.08
C      14.75      14.01       3.12
C      13.88      14.83       3.88
C      14.32       9.65       4.10
C      15.81      14.59       2.23
C      14.14       8.27       3.96
C      13.03       7.74       3.31
C      12.06       8.62       2.81
C      12.22      10.00       2.96
C      13.34      10.53       3.61
C      11.58      12.23       5.39
