30

H       6.16      12.50       3.24
H       1.96      12.01       2.56
H       2.25      15.31       6.09
H       6.45      15.98       6.60
H       8.82      13.56       3.34
H      -0.42      15.23       5.03
C       4.00      16.72       7.51
C       4.41      11.10       1.81
C       5.14      12.80       3.48
C       2.76      12.52       3.09
C       2.48      13.46       4.06
C       3.52      14.13       4.77
C       3.27      15.08       5.79
C       5.65      15.46       6.08
C       5.93      14.51       5.13
C       4.89      13.80       4.44
C       4.10      12.17       2.81
C       4.31      15.73       6.43
S       7.63      14.00       5.03
S       0.78      13.54       4.56
O       5.02      17.25       8.09
O       2.78      16.94       7.78
O       5.63      10.83       1.60
O       3.40      10.55       1.25
O       7.92      13.99       3.47
O       8.45      15.06       5.62
O       7.74      12.67       5.57
O       0.49      15.11       4.60
O      -0.04      12.97       3.49
O       0.67      12.99       5.88
