12

O       0.55      11.75       1.77
O      -7.58       8.35      -3.69
O      -0.45      11.01       3.69
C      -7.64       8.17      -2.43
C      -0.39      11.20       2.43
C      -6.52       8.64      -1.67
C      -1.51      10.72       1.67
C      -5.55       9.04      -1.03
C      -2.48      10.32       1.03
C      -4.50       9.48      -0.32
C      -3.53       9.88       0.32
O      -8.58       7.61      -1.77
