26

C       3.67       9.57      14.70
C       2.29       9.72      14.79
C       1.74      10.41      15.88
C       2.63      10.93      16.84
C       3.99      10.74      16.68
C       0.30      10.59      16.04
C      -2.65       9.62      14.75
C      -4.10       9.74      14.86
C      -4.92       8.92      14.07
C      -6.30       9.02      14.18
C      -6.11      10.69      15.78
C      -4.73      10.65      15.73
N       4.50      10.07      15.63
N      -0.52       9.97      15.26
N      -1.85      10.25      15.55
N      -6.89       9.89      15.02
H       4.11       9.02      13.87
H       1.65       9.31      14.00
H       2.25      11.49      17.70
H       4.72      11.14      17.39
H      -0.06      11.26      16.83
H      -2.25       8.97      13.96
H      -4.48       8.18      13.39
H      -6.98       8.40      13.60
H      -6.65      11.39      16.43
H      -4.12      11.31      16.35
