26

C       2.33       6.02       1.78
C       2.49       6.18       0.41
C       2.63       5.03      -0.39
C       2.63       3.78       0.23
C       2.47       3.70       1.60
C       2.72       5.15      -1.85
C       3.10       5.33      -4.40
C       3.77       4.38      -7.96
H       2.19       6.87       2.45
C       3.47       4.26      -6.62
C       3.45       5.42      -5.82
H       2.48       7.17      -0.04
C       3.76       6.65      -6.42
H       2.73       2.87      -0.37
C       4.06       6.67      -7.77
H       2.44       2.75       2.12
H       3.78       3.52      -8.63
H       3.23       3.29      -6.19
H       3.76       7.57      -5.83
H       4.30       7.61      -8.29
N       2.31       4.81       2.36
N       2.81       6.39      -2.39
N       3.00       6.48      -3.69
N       2.79       4.12      -3.89
N       2.60       4.02      -2.59
N       4.07       5.56      -8.53
