22

H      12.25       7.84      12.38
H      14.85       7.01       7.10
H      14.73       7.74      12.63
H      17.34       7.11       7.32
H      16.99       7.44      11.60
H      12.61       7.06       8.17
C      10.81       7.43      10.11
C      12.29       7.43      10.25
C      17.29       7.27       9.48
C      15.32       7.12       8.08
C      16.69       7.17       8.20
C      16.51       7.36      10.62
C      15.10       7.40      10.52
C      14.49       7.25       9.23
C      13.08       7.23       9.13
C      12.90       7.65      11.52
C      18.78       7.29       9.59
C      14.27       7.61      11.65
O      10.15       8.09      11.00
O      19.30       6.71      10.60
O      10.33       6.79       9.13
O      19.41       7.88       8.65
