24

C       6.05       3.42      23.66
H       7.08       1.48      21.52
H       8.91       3.40      20.47
Cl       5.81       6.72      20.21
O       4.69       3.92      26.74
H       7.91       5.33      22.27
H       4.17       4.23      21.40
O       8.58       3.64      15.18
O       7.31       5.53      15.07
O       5.68       1.88      26.71
H       5.18       2.29      19.59
C       7.05       4.15      18.20
C       7.73       4.47      15.66
C       7.28       4.24      17.01
C       5.23       4.03      21.19
C       6.29       3.59      22.27
C       6.24       5.08      20.62
C       6.80       4.00      19.59
C       5.78       2.96      20.21
C       7.31       4.65      21.67
C       6.85       2.52      21.26
C       5.40       3.01      26.19
C       7.86       3.57      20.69
C       5.85       3.27      24.85
