28

H       3.74       4.91       4.70
H       3.79       4.86       2.19
H      -0.47       5.79       4.62
H       3.82       4.90      -4.71
H      -0.42       5.61      -4.72
H      -0.46       5.45      -2.22
C       1.61       5.29       6.29
C       1.72       5.50      -6.34
C       1.64       5.34       4.81
C       2.84       5.10       4.12
C       2.86       5.06       2.73
C       1.68       5.28       1.99
C       0.50       5.56       2.71
C       0.46       5.59       4.09
C       1.67       5.20       0.58
C       1.67       5.12      -0.64
C       1.66       5.11      -2.05
C       2.84       4.93      -2.79
C       2.88       5.03      -4.17
C       1.70       5.30      -4.86
C       0.49       5.42      -4.16
C       0.47       5.34      -2.77
O       2.72       5.08       6.89
O       2.87       5.50      -6.91
O       0.60       5.70      -6.91
O       0.48       5.42       6.86
F      -0.64       5.79       2.01
F       3.99       4.66      -2.11
