22

F      -5.09      -0.39       9.89
H      -7.61      -3.71      14.49
H      -5.74      -6.90      12.27
H      -4.95      -5.29      10.59
C      -7.75      -1.18      13.93
C      -7.04      -4.04      13.63
C      -6.72      -5.38      13.48
C      -5.98      -5.84      12.37
C      -5.54      -4.94      11.43
C      -5.83      -3.55      11.56
C      -6.61      -3.09      12.67
C      -6.89      -1.68      12.81
C      -6.34      -0.77      11.89
C      -5.61      -1.27      10.79
C      -5.34      -2.61      10.60
C      -4.50      -3.03       9.43
I      -6.47       1.33      11.93
I      -7.34      -6.76      14.94
O      -8.74      -1.91      14.33
O      -4.98      -2.79       8.27
O      -7.45      -0.05      14.43
O      -3.40      -3.59       9.69
