16

C       4.63       3.42       5.92
O       4.72       2.94       7.11
O       3.86       4.39       5.57
C       6.73       3.00       2.80
C       5.88       3.56       3.76
C       5.49       2.81       4.87
C       5.91       1.48       5.00
C       6.69       0.90       4.01
C       7.12       1.66       2.91
O       7.86      -0.22       1.68
C       7.98       1.04       1.87
H       7.07       3.59       1.95
H       5.54       4.59       3.66
O       8.78       1.81       1.23
H       6.99      -0.15       4.07
H       5.61       0.91       5.88
