55

H       6.37      11.24       1.32
H       9.75       8.14       7.59
H       8.00       4.74      -1.26
H       8.23       4.79       1.27
H       9.39       8.15      -4.99
H       5.46       8.02       7.64
H       9.50       8.17      -7.50
H       5.23       7.81      -7.69
H       5.11       7.78      -5.18
H       9.73       8.16       5.08
H       5.43       8.03       5.13
H       5.64      12.18      -0.51
H       4.50      10.58      -2.60
H       5.61      11.79      -3.28
H       4.24      12.31      -2.25
C       7.37       6.73      -2.86
C       8.48       8.07      -5.59
C       7.43       8.03      -9.24
C       8.54       8.08      -6.98
C       7.37       8.00      -7.74
C       6.13       7.89      -7.09
C       6.07       7.87      -5.69
C       7.24       7.97      -4.95
C       8.79       8.14       5.64
C       8.81       8.12       7.04
C       6.60      10.34       0.73
C       7.61       8.08       7.75
C       6.39       8.05       7.06
C       6.37       8.06       5.67
C       7.57       8.10       4.97
C       6.40      10.34      -0.68
C       7.61       8.05       9.26
C       6.80       9.19      -1.42
C       7.82       6.87       2.88
C       7.16       9.29       2.89
C       7.17       8.01      -0.71
C       7.03       9.23       1.41
C       7.29       8.02       0.71
C       7.68       6.85       1.40
C       5.00      11.54      -2.40
C       7.45       6.80      -1.39
C       7.82       5.65      -0.69
C       7.94       5.67       0.71
C       7.02       9.22      -2.87
N       7.53       8.09       3.53
N       7.17       7.96      -3.51
N       5.80      11.45      -1.20
O       6.94      10.32       3.53
O       7.12      10.25      -3.54
O       7.49       5.68      -3.50
O       6.32       8.02      -9.86
O       8.59       8.08      -9.77
O       6.47       8.09       9.82
O       8.74       7.99       9.84
O       8.16       5.88       3.53
