26

C       1.99      15.42      10.88
C       2.01      12.93       9.45
O       1.20      15.60      14.75
H       2.92      10.28      14.47
H       1.14      10.23      14.46
O       3.07      16.19      13.64
H       1.08      12.42      15.70
H       2.86      12.44      15.74
O       0.93      10.17      10.17
O       2.81       9.49      11.24
H       2.91      15.55      10.29
H       1.88      16.29      11.53
H       1.16      15.42      10.17
H       1.09      13.37       9.04
H       2.12      11.93       9.02
H       2.85      13.55       9.09
C       2.10      15.40      13.87
C       1.91      10.36      10.97
C       1.98      11.67      11.66
C       2.02      14.15      13.08
C       2.01      11.72      13.05
C       2.02      14.13      11.67
C       1.99      12.92      13.74
C       1.98      12.90      10.96
C       2.01      10.88      14.31
C       1.99      12.25      15.10
