42

C      15.23       9.44       9.90
C      15.22       9.67       8.51
C      15.25      10.26       5.70
C      14.07       9.76       6.36
C      14.04       9.51       7.71
C      15.27      10.68       4.36
C      16.45      11.12       3.77
C      17.65       9.54       9.93
C      17.67      10.02       8.61
C      16.45      10.00       7.85
C      18.86      10.50       7.95
C      18.85      10.87       6.63
C      17.65      10.78       5.85
C      16.45      10.34       6.47
H      14.36      10.67       3.76
C      17.64      11.15       4.50
H      13.13       9.11       8.16
C      16.45       9.21      10.56
H      19.75      11.26       6.15
H      18.56      11.49       4.01
H      18.57       9.39      10.48
C      16.42      11.65       2.38
S      13.70       9.63      10.83
S      12.67       9.26       5.41
S      20.36      10.68       8.91
H      13.29      11.68      10.41
H      11.44      10.63       4.29
H      21.68      10.35       7.26
O      17.51      11.76       1.76
O      15.26      12.01       1.94
O      15.44       7.82      12.15
O      17.62       8.37      12.47
O      12.83       8.51      10.65
O      14.02      10.21      12.11
O      13.01      10.84       9.98
O      13.06       8.61       4.19
O      11.73       8.57       6.28
O      12.06      10.71       5.05
O      20.19      11.79       9.81
C      16.50       8.44      11.85
O      20.71       9.38       9.43
O      21.43      11.13       7.84
