20

H       6.88       7.18       9.08
H       2.59       6.58      11.52
C       4.57       7.32      13.18
C       4.90       6.51       7.41
C       4.66       7.04      11.71
C       4.80       6.74       8.89
C       5.86       7.17      11.00
C       3.60       6.59       9.60
C       5.94       7.05       9.62
C       3.52       6.72      10.98
N       7.13       7.31      11.73
N       2.33       6.39       8.88
O       5.66       7.64      13.75
O       6.03       6.64       6.86
O       3.82       6.16       6.84
O       3.43       7.24      13.72
O       7.58       6.26      12.20
O       7.68       8.42      11.77
O       1.81       5.27       8.89
O       1.85       7.42       8.40
