13

O      13.09      11.85       9.35
O      12.26       9.57      11.89
H      10.27       9.09      12.27
C      13.18      10.86      10.11
H      11.04      10.18      13.47
H      11.68      11.53      11.51
O      12.79       7.68      13.56
C      11.21       9.31      12.81
H      11.12      10.31      10.32
O      10.70       7.70      14.44
O      14.17      10.05      10.23
C      11.60       8.12      13.67
C      11.96      10.61      10.97
