13

C      13.97       9.70       2.20
O      14.30       6.66       5.73
O      16.23       6.93       6.89
H      15.94       8.85       2.34
H      15.70      10.32       3.34
C      15.23       9.39       3.00
C      15.74       8.50       5.20
C      15.38       7.25       6.00
O      12.92       9.05       2.46
O      14.12      10.59       1.31
O      14.85       8.57       4.10
H      15.63       9.38       5.86
H      16.79       8.43       4.86
