65

P      19.27       9.81      20.60
P      20.28      13.71      16.55
C      19.93      10.35      18.96
C      19.82      11.67      18.50
C      20.41      12.04      17.30
C      21.13      11.10      16.55
C      21.20       9.77      16.97
C      20.58       9.40      18.18
C      21.94       8.76      16.19
C      23.08       9.09      15.45
C      23.76       8.10      14.75
C      22.25       6.49      15.44
C      21.52       7.42      16.16
C      19.71      11.24      21.65
C      18.94      11.56      22.78
C      19.37      12.54      23.67
C      20.57      13.22      23.46
C      21.35      12.91      22.34
C      20.92      11.93      21.44
C      16.85       8.76      19.87
C      15.50       8.77      19.52
C      14.76       9.95      19.62
C      15.38      11.13      20.05
C      16.73      11.13      20.39
C      17.47       9.93      20.31
C      21.77      14.58      17.19
C      22.25      14.38      18.49
C      23.34      15.13      18.96
C      23.94      16.08      18.14
C      23.48      16.26      16.83
C      22.41      15.51      16.36
C      18.92      14.48      17.52
C      17.61      14.07      17.22
C      16.53      14.62      17.91
C      16.74      15.59      18.89
C      18.04      16.02      19.18
C      19.12      15.46      18.50
H      19.27      12.41      19.09
H      21.58      11.40      15.60
H      20.64       8.37      18.53
H      23.45      10.12      15.43
H      24.65       8.33      14.17
H      21.98       5.43      15.41
H      20.62       7.10      16.69
H      18.01      11.03      22.97
H      18.76      12.78      24.55
H      20.90      13.98      24.16
H      22.29      13.43      22.16
H      21.54      11.68      20.58
H      17.42       7.83      19.82
H      15.02       7.85      19.17
H      13.70       9.95      19.35
H      14.80      12.05      20.12
H      17.21      12.05      20.71
H      21.78      13.65      19.15
H      23.71      14.97      19.98
H      24.79      16.67      18.50
H      23.97      16.98      16.17
H      22.08      15.61      15.32
H      17.44      13.32      16.45
H      15.52      14.28      17.67
H      15.89      16.03      19.42
H      18.21      16.79      19.93
H      20.13      15.80      18.74
N      23.36       6.81      14.75
