16

C      22.32       9.97       2.64
C      24.75       8.19       5.88
C      23.16       9.35       3.76
O      22.65      11.11       2.20
O      21.33       9.30       2.20
C      24.28      10.04       4.30
C      22.85       8.08       4.30
C      23.63       7.51       5.34
Br      21.38       7.04       3.68
Br      23.08       5.79       5.95
C      25.06       9.47       5.34
Br      26.53      10.51       5.95
Br      24.83      11.75       3.68
O      25.26       6.43       7.44
O      26.58       8.24       7.44
C      25.59       7.57       7.00
