38

C       9.37      12.33       2.23
C       9.10      13.12       3.37
C      10.11      13.63       4.15
C      11.47      13.42       3.82
C      11.76      12.64       2.68
C      10.72      12.08       1.89
C      12.55      14.00       4.60
C      12.46      14.69       5.76
H       8.05      13.29       3.62
H       9.86      14.24       5.02
C      13.32      16.02       7.64
C      13.58      15.26       6.49
C      14.92      15.09       6.10
C      15.97      15.64       6.82
C      15.73      16.41       8.01
C      14.35      16.60       8.39
H      12.29      16.18       7.95
H      15.16      14.50       5.21
H      11.48      14.84       6.22
H      13.56      13.89       4.20
N      11.10      11.33       0.78
N      13.07      12.33       2.26
N      17.26      15.39       6.36
N      14.00      17.37       9.47
H      10.30      10.90       0.32
H      11.88      10.70       0.96
H      13.80      12.87       2.71
H      13.16      12.34       1.25
H      17.97      16.00       6.74
H      17.32      15.16       5.38
O      18.05      16.73       8.45
O      16.56      17.64       9.88
H      14.74      17.67      10.10
H      13.04      17.35       9.78
O       8.48      11.11       0.39
O       7.05      12.01       1.89
C      16.83      16.96       8.82
C       8.23      11.78       1.45
