24

C      -1.66       8.55       8.23
H      -3.59       7.44       6.29
H       0.88       7.26       8.15
C      -3.68      10.15       8.12
H      -1.28       9.93       9.79
H      -1.22       7.79       7.57
C       1.24      10.14      10.00
C       3.53       7.61       7.16
H       3.58       6.53       7.21
H      -3.46      10.93       8.85
H       0.49      10.60      10.70
N      -4.74      10.29       7.25
H       2.61      10.75       7.55
N       4.45       8.33       6.50
N       4.14       9.69       6.60
C       3.06       9.78       7.35
N      -4.77       9.18       6.45
C      -3.75       8.38       6.81
O       2.42      10.45      10.10
C       2.59       8.49       7.76
C      -2.99       8.96       7.85
C       0.61       9.13       9.13
C       1.35       8.23       8.38
C      -0.84       9.17       9.12
