32

H      10.49      13.13      16.61
H       6.17      13.14      16.61
H      10.49      22.52      16.60
H       6.18      22.53      16.60
O       9.46      10.92      16.64
O       7.19      10.92      16.64
O       7.20      24.74      16.61
O       9.47      24.74      16.59
H       6.08      16.69      16.60
H      10.58      16.68      16.60
H       6.09      18.98      16.61
H      10.58      18.97      16.61
O       5.91      15.72      16.60
O      10.75      15.72      16.61
O       5.91      19.94      16.60
O      10.75      19.93      16.60
C       8.33      11.50      16.64
C       8.34      24.16      16.60
C       8.33      13.00      16.62
C       9.55      13.69      16.61
C       9.55      15.07      16.61
C       8.33      15.80      16.61
C       7.11      15.08      16.61
C       7.11      13.69      16.61
C       8.33      17.21      16.60
C       8.33      18.45      16.60
C       8.33      19.86      16.60
C       9.55      20.58      16.60
C       9.55      21.97      16.59
C       8.34      22.66      16.59
C       7.12      21.97      16.59
C       7.11      20.59      16.60
