23

H       5.41       6.82      11.54
H       6.88      11.38      11.23
H       1.72       9.89      13.14
H       1.96       8.30      10.98
C       4.82       9.69      11.09
C       4.89      10.60       9.92
C       4.62       5.52      13.12
C       3.75       7.79      12.35
C       4.60       6.76      12.27
C       3.75       8.88      11.35
S       6.27       9.60      12.16
S       2.34       7.87      13.46
O       3.51       4.93      13.29
O       6.04      11.14       9.67
O       5.86       9.32      13.51
O       7.25       8.78      11.50
O       6.75      11.12      12.18
O       1.18       7.57      12.63
O       2.58       7.22      14.71
O       2.30       9.45      13.79
O       2.59       8.99      10.65
O       3.84      10.79       9.23
O       5.77       5.17      13.51
