12

C       5.24       5.69       9.91
C       5.36       5.15      19.12
C       5.26       5.57      11.34
C       5.24       5.43      12.56
C       5.22       5.29      13.89
C       5.21       5.18      15.12
C       5.22       5.11      16.46
C       5.26       5.08      17.69
O       4.10       5.89       9.37
O       6.36       5.59       9.31
O       4.32       4.87      19.81
O       6.49       5.49      19.59
