24

C       8.55      21.66      12.20
C       9.72      21.67       8.64
C      10.79      21.67       7.83
C      11.95      21.67       5.65
C      10.74      21.67       6.37
C       9.54      21.67       5.64
C       9.62      21.68       4.26
C      11.89      21.68       4.27
H      11.73      21.66      12.90
H      11.91      21.66      10.40
H      12.92      21.67       6.15
H       8.56      21.67       6.10
H       8.71      21.67       8.21
H      11.80      21.67       8.25
N       9.66      21.66      12.91
N      10.76      21.68       3.55
F       7.38      21.66      12.85
F       7.36      21.67      10.15
F       8.49      21.68       3.54
F      13.03      21.68       3.57
C      10.85      21.66      12.26
C      10.93      21.66      10.88
C       9.75      21.66      10.09
C       8.55      21.66      10.80
