34

H       3.40      15.53      12.25
H       3.31      15.41       9.74
H       1.27      11.62      10.02
H       1.27      16.15       6.02
H       3.31      12.37       6.29
H       3.40      12.25       3.78
H       2.86      10.83      13.26
H       2.86      16.94       2.78
C       2.33      13.96       2.02
C       2.33      13.81      14.01
C       2.34      13.68      12.53
C       2.92      14.69      11.75
C       2.87      14.63      10.36
C       2.26      13.52       9.75
C       1.72      12.48      10.52
C       1.74      12.56      11.91
C       1.72      15.29       5.52
C       2.26      14.25       6.29
C       2.87      13.15       5.67
C       2.92      13.09       4.29
C       2.34      14.10       3.50
C       1.74      15.21       4.13
C       1.12      11.44      12.69
C       1.12      16.34       3.35
N       2.20      13.35       8.35
N       2.20      14.43       7.69
O       1.32      14.47       1.43
O       3.30      13.35       1.47
O       1.32      13.30      14.60
O       3.30      14.42      14.57
O       1.87      10.66      13.45
O      -0.09      11.22      12.54
O       1.87      17.11       2.59
O      -0.09      16.56       3.49
