10

O       1.71      11.11      18.02
C       2.69       8.06      13.08
C       2.74       8.71      14.11
C       2.78       9.43      15.26
C       2.83      10.08      16.29
O       3.99      11.10      18.01
C       2.68       7.33      11.84
C       2.85      10.82      17.53
O       1.53       7.07      11.35
O       3.82       7.04      11.35
