34

C      -0.51       4.65      17.70
C      -0.82       4.52      19.09
C      -1.41       4.33      21.89
C      -2.05       5.32      21.06
C      -1.78       5.37      19.71
C      -1.72       4.18      23.25
H      -2.46       4.81      23.75
C      -1.13       3.17      24.01
H      -2.30       6.13      19.13
C       0.80       2.66      19.31
C      -0.16       3.55      19.89
C       1.09       2.79      17.96
H       0.28       1.54      24.04
C       0.18       2.45      22.08
C      -0.47       3.45      21.28
C      -0.17       2.32      23.43
H       1.84       2.15      17.49
C       1.45       1.70      20.15
C       0.47       3.76      17.14
H       2.21       1.05      19.70
C       1.16       1.59      21.47
C      -1.59       2.91      25.40
N      -1.12       5.60      16.96
N      -2.92       6.27      21.63
H      -0.88       5.74      15.97
H      -1.72       6.28      17.41
H      -3.37       5.94      22.49
H      -3.65       6.55      20.98
O      -1.12       1.91      26.01
O      -2.50       3.70      25.87
O       0.45       4.82      15.03
O       1.87       3.10      15.34
H       1.66       0.86      22.10
C       0.94       3.90      15.76
