26

H       7.35       3.42      22.01
C       9.25       0.96      26.40
O       8.16       3.43      15.34
O      10.38       0.59      26.80
O       8.13       0.83      27.03
H      11.35       3.06      22.16
H      11.23       0.94      20.29
H       9.47       4.54      20.49
H       6.93       1.50      19.10
H       8.65      -0.57      22.66
O      10.43       3.56      15.32
O       7.02       1.13      20.00
O       9.18      -0.47      21.84
C      10.38       1.49      20.68
C      10.43       2.68      21.69
C       9.17       1.54      25.08
C       9.35       2.70      17.18
C       9.19       0.86      21.48
C       9.23       2.08      22.52
C       8.15       1.67      20.59
C       9.36       2.29      19.78
C       8.21       2.87      21.61
C       9.40       3.49      20.82
C       9.18       1.85      23.91
C       9.30       3.24      15.85
C       9.39       2.48      18.38
