36

N      -2.51       6.33      12.09
N      -4.83       0.31       2.16
H      -2.39       3.13      11.93
H      -1.91       7.08      10.22
N      -5.04       1.56       1.65
Cl      -3.51      -0.98       4.05
Cl      -1.97       6.51       7.79
H      -1.42       2.26      10.13
H      -2.26       5.71       5.39
H      -2.95       4.39       3.47
H      -2.64       0.77       5.78
H      -4.39       3.50       2.17
H      -0.06       0.29       9.62
H      -1.71       0.02      10.24
H      -0.91      -1.22       9.27
H      -2.57      -0.03       7.86
H      -0.94       0.17       7.25
C      -3.64       1.79       3.43
C      -2.33       4.18      11.70
C      -2.10       6.20      10.81
C      -3.99       0.44       3.21
C      -1.99       4.83      10.49
C      -1.81       4.16       9.19
C      -2.93       2.47       4.51
C      -2.35       4.63       5.49
C      -2.75       3.88       4.41
C      -2.55       1.85       5.69
C      -2.12       2.59       6.82
C      -2.11       4.02       6.75
C      -1.93       4.77       7.95
C      -1.65       2.74       9.18
C      -1.78       1.95       8.06
C      -4.34       2.44       2.39
C      -1.60       0.45       8.09
C      -1.04      -0.14       9.38
N      -2.65       5.10      12.63
