37

H      -6.12      -4.89      15.70
H      -5.69      -6.70      14.05
H      -9.91      -7.61      13.99
H     -10.31      -5.81      15.67
H      -6.09      -9.31      14.37
N      -6.23     -10.46      12.66
N      -8.89      -7.53      11.24
H      -6.52     -11.45      10.87
H      -6.29     -10.47       8.81
H      -7.01     -10.76       6.46
O      -9.65      -4.14      17.35
H     -10.96      -9.51       7.51
H     -10.28      -9.27       9.88
O      -7.48      -3.55      17.29
O     -10.76     -10.25       5.18
O      -8.72     -11.03       4.62
H      -9.14      -7.51      10.27
H      -8.97      -6.68      11.78
C      -8.48      -4.24      16.89
C      -8.24      -5.25      15.80
C      -6.94      -5.49      15.32
C      -6.71      -6.50      14.39
C      -7.77      -7.28      13.91
C      -9.08      -7.00      14.35
C      -9.30      -6.00      15.29
C      -7.50      -8.42      13.00
C      -6.59      -9.40      13.40
C      -6.83     -10.57      11.45
C      -7.74      -9.66      10.91
C      -8.08      -8.52      11.71
C      -8.22      -9.83       9.52
C      -7.32     -10.26       8.53
C      -7.73     -10.44       7.21
C      -9.05     -10.19       6.83
C      -9.94      -9.73       7.81
C      -9.54      -9.56       9.13
C      -9.54     -10.49       5.44
