46

H       2.37       0.89       6.42
H       4.34      -0.95      11.27
H      -0.70      -0.63       7.66
H       0.24       0.65       6.90
H      -0.58      -0.56       5.89
H       1.86      -1.09       6.00
H       0.88      -2.36       6.72
H       5.92       1.76      12.74
H       4.26       1.31      12.30
H       4.93       2.86      11.75
H       5.99       0.08      10.90
H       6.64       1.60      10.36
H       3.97       4.81       8.15
H       4.02       4.46       9.89
H       5.25       5.52       9.15
H       6.23       3.28       9.58
H       6.16       3.58       7.85
H      -0.46      -3.04      10.35
H      -0.82      -2.55       8.68
H      -0.85      -4.27       9.12
H       1.26      -3.81       7.91
H       1.59      -4.26       9.57
C       3.90       2.93       6.26
C       2.77      -2.96      11.44
C       3.87       2.00       7.43
C       2.81      -2.03      10.28
C       2.04      -1.21       8.13
C       4.72       1.11       9.52
C       1.98      -2.20       9.12
C       4.73       2.13       8.56
C       3.71      -0.98      10.39
C       2.99       0.93       7.30
C       3.80       0.02       9.40
C       2.91      -0.09       8.28
C       1.21      -1.32       6.86
C      -0.02      -0.41       6.82
C       5.70       1.12      10.67
C       5.17       1.80      11.94
C       5.54       3.39       8.74
C       4.64       4.62       9.00
C       1.16      -3.46       8.95
C      -0.33      -3.32       9.29
O       3.88      -3.21      12.02
O       2.78       3.20       5.70
O       5.04       3.35       5.86
O       1.64      -3.40      11.83
