54

H       0.68       0.63       9.04
H       3.16      -0.50       7.67
C       2.94       5.39       8.00
C       2.59       2.92       9.59
C       1.15       2.95       3.93
C       0.85       0.54       5.47
C       1.41      -0.49      11.27
C       1.17      -3.00      12.63
C       3.06      -2.95       7.11
C       2.98      -5.44       8.60
O       1.09      -6.25      11.11
O       2.98      -5.62      12.18
O       1.18       6.22       5.43
H       2.30       5.73       8.83
O       3.07       5.53       4.40
H       3.02       6.21       7.29
H       3.94       5.22       8.41
H       3.21       2.04       9.83
H       1.66       2.14       3.37
H       1.38       3.89       3.44
H       0.07       2.78       3.83
H       0.80      -0.32       6.16
H       1.45       0.24       4.60
H      -0.17       0.74       5.10
H       1.69       2.85      10.22
H       3.14       3.81       9.90
H       0.32      -0.32      11.31
H       1.86       0.40      10.81
H       1.76      -0.55      12.31
H       1.89      -2.54      13.33
H       4.15      -2.79       7.06
H       2.58      -2.17       6.51
H       2.85      -3.91       6.62
H       0.97      -4.02      12.99
H       0.23      -2.44      12.73
H       2.32      -5.73       7.76
H       3.00      -6.28       9.30
H       4.00      -5.34       8.19
C       2.04      -5.43      11.34
C       2.11       5.37       5.22
C       2.04       4.10       6.01
C       1.56       2.94       5.38
C       1.41       1.76       6.15
C       1.75       1.78       7.51
C       2.24       2.95       8.13
C       2.39       4.13       7.37
C       1.54       0.59       8.37
C       2.33      -0.50       8.37
C       2.58      -2.95       8.54
C       2.20      -1.73       9.17
C       1.75      -1.75      10.52
C       1.67      -2.97      11.21
C       2.07      -4.15      10.57
C       2.53      -4.16       9.24
