24

O      15.39       6.69      14.32
O      11.76       9.13       8.35
H      11.56       8.97      12.32
O      10.52       9.60      10.20
H      16.53       8.01       9.64
F      13.20       8.09      14.02
F      14.00       6.49       8.06
H      15.75       5.17       9.49
H      16.94       5.93       8.63
H      15.58       9.23       7.93
H      13.97       9.16       7.46
C      13.76       7.94       9.97
C      11.54       9.12       9.61
C      12.59       8.52      10.47
C      12.45       8.54      11.86
C      13.44       8.01      12.69
C      14.64       7.44      12.21
C      14.77       7.46      10.81
C      15.76       7.22       9.66
C      14.54       7.65       8.70
C      15.67       6.83      13.09
N      16.42       5.95       9.51
N      14.80       8.62       7.70
O      16.75       6.47      12.51
