30

O       4.16       6.18       5.60
H       7.10       4.96       3.37
O       6.42       5.99       5.51
H       3.28       6.90       3.33
H       2.08       7.28       1.17
H       1.95       6.97      -1.28
H       2.94       6.09      -3.40
H       6.73       4.08      -3.35
H       7.94       3.72      -1.19
H       8.08       4.06       1.26
C       6.19       5.12       1.41
C       2.88       6.76       0.63
C       2.81       6.59      -0.72
C       3.84       5.91      -1.44
C       4.97       5.42      -0.72
C       6.03       4.74      -1.41
C       7.14       4.25      -0.66
C       7.22       4.43       0.69
C       3.79       5.72      -2.83
C       4.83       5.08      -3.51
C       4.77       4.98      -5.01
C       5.94       4.59      -2.80
C       5.26       6.06       4.98
C       6.24       5.32       2.80
C       5.20       5.94       3.48
C       4.08       6.42       2.78
C       4.00       6.27       1.39
C       5.05       5.60       0.69
O       3.62       5.03      -5.54
O       5.88       4.88      -5.63
