42

H       8.08      18.84       5.36
H       7.25      19.67       7.56
H       3.49      20.71       5.75
H       4.31      19.85       3.56
H       5.02      23.06      10.53
H       6.43      23.65       8.72
H       7.37      22.19       8.36
H       6.26      22.84       7.14
H       0.33      23.28      13.33
H       1.15      22.45      11.13
H       4.91      21.41      12.94
H       4.10      22.28      15.13
H       3.39      19.06       8.16
H       1.98      18.48       9.97
H       1.04      19.93      10.33
H       2.15      19.29      11.55
C       6.74      18.83       3.00
C       6.25      19.31       4.32
C       7.08      19.26       5.45
C       6.61      19.73       6.68
C       5.31      20.25       6.80
C       4.50      20.30       5.66
C       4.95      19.83       4.44
C       4.78      20.69       8.11
C       5.27      21.83       8.79
C       4.67      22.17      10.01
C       6.39      22.67       8.22
C       1.66      23.30      15.69
C       2.15      22.82      14.37
C       1.33      22.86      13.24
C       1.79      22.40      12.01
C       3.09      21.88      11.89
C       3.91      21.83      13.03
C       3.45      22.30      14.25
C       3.63      21.43      10.58
C       3.13      20.30       9.90
C       3.73      19.96       8.68
C       2.02      19.45      10.47
O       5.91      18.62       2.07
O       8.02      18.65       2.89
O       2.50      23.51      16.62
O       0.38      23.47      15.80
