16

S      18.24      11.19       6.05
S      18.39      11.92       1.93
C      18.35       8.42       6.06
O      18.26      14.54       0.68
O      18.57       7.31       5.46
O      18.41      15.79       2.60
O      18.13       8.57       7.32
C      18.33      14.69       1.96
F      18.48       8.74       3.02
H      18.25      14.23       4.78
C      18.41       9.77       3.88
C      18.28      13.36       4.13
C      18.34       9.64       5.26
C      18.33      13.46       2.75
C      18.30      12.01       4.54
C      18.37      11.11       3.45
