44

N       3.73      13.04       3.87
N      -2.24      16.66       5.08
O       1.79       6.53       1.12
O       3.78       6.33       2.18
O       9.33      17.44       5.26
O       9.92      15.51       6.25
C       1.36      14.49       4.26
C      -1.12      14.58       4.69
H      -1.20      13.49       4.66
H      -3.23      14.84       5.18
C      -2.26      15.31       4.98
H       2.66      15.99       5.13
C       2.54      12.51       3.52
H       0.40      12.79       3.34
C       2.58      11.14       2.97
H      -1.07      18.38       4.98
H       1.02      17.21       4.47
C       2.60      15.02       4.62
C       1.34      13.21       3.68
H       0.44      10.78       3.10
H       4.72      11.15       2.75
C      -1.07      17.30       4.88
C       0.11      16.63       4.61
H       0.58       8.45       2.27
C       0.11      15.23       4.51
H       4.85       8.75       2.02
C       1.41      10.36       2.83
C       3.77      14.28       4.40
H       6.89      17.70       5.04
H       4.59      16.88       4.54
H       5.92      12.83       5.11
C       3.82      10.55       2.63
H       8.20      13.67       5.74
C       1.48       9.05       2.38
C       3.89       9.22       2.23
C       2.72       8.46       2.11
C       2.80       7.00       1.78
C       7.68      15.74       5.40
C       6.66      16.64       5.07
C       5.38      16.17       4.79
C       5.10      14.79       4.78
C       6.13      13.90       5.12
C       7.40      14.36       5.45
C       9.07      16.23       5.67
