20

H      10.54      -0.28      16.69
H      10.80      -2.09      14.20
H      10.79      -1.06      12.07
H      10.63       0.95      10.59
H      10.28       3.47      14.06
H      10.41       1.48      15.54
C      10.72      -2.44      16.86
C      10.64      -1.18      16.08
C      10.69      -1.14      14.73
C      10.61       0.06      13.91
C      10.68      -0.06      12.50
C      10.59       1.05      11.68
C      10.45       2.33      12.24
C      10.39       2.47      13.64
C      10.47       1.35      14.46
C      10.35       3.54      11.37
O      10.67      -2.29      18.13
O      10.83      -3.54      16.22
O      10.30       3.36      10.11
O      10.33       4.67      11.97
