32

H       2.88       9.80       5.79
H      -0.63      10.40       2.49
H       3.53       8.98       8.04
H      -1.42       7.31       6.09
H       2.79       8.18      10.20
H      -1.01       6.98       8.53
H       3.34      11.13       4.04
H      -1.87       6.69      10.69
H       2.73       7.82      12.22
H      -1.77       7.98       4.01
C       0.80       7.93      12.11
C       0.25       7.43      10.91
C       0.37      10.74       2.70
C       1.26      10.29       3.69
C       1.04       9.34       4.78
C       0.80       7.56       9.56
C       2.53       8.54       8.13
C       2.12       8.08       9.36
C      -0.00       7.39       8.43
C       0.39       7.87       7.16
C       1.66       8.52       7.02
C       2.40      11.10       3.49
C       1.94       9.23       5.83
C      -0.16       8.56       4.88
C      -0.47       7.85       6.03
C      -1.07       7.11      11.28
N       0.93      11.73       1.98
N       2.19      11.95       2.47
N      -1.28       7.44      12.57
N      -0.13       7.94      13.09
O       2.02       8.48      12.38
O      -1.01       8.56       3.80
