26

H      12.20      -0.77      12.83
H      12.19      -2.21      14.83
H      16.49      -4.72      18.42
H      16.51      -3.32      16.40
O      15.49      -5.98      20.27
H      12.21      -4.72      18.42
O      13.21       0.55      11.03
H      16.49      -0.77      12.83
H      16.51      -2.21      14.83
H      12.19      -3.32      16.40
O      13.21      -5.98      20.27
O      15.49       0.55      11.03
C      14.35      -5.64      19.79
C      14.35       0.21      11.51
C      14.35      -0.67      12.71
C      14.35      -4.81      18.56
C      13.14      -1.10      13.29
C      13.14      -1.91      14.41
C      15.55      -4.41      17.97
C      15.55      -3.62      16.83
C      13.14      -4.41      17.97
C      13.14      -3.62      16.83
C      15.55      -1.10      13.29
C      15.55      -1.91      14.41
C      14.35      -2.34      15.01
C      14.35      -3.19      16.22
