38

C       0.65      12.54       6.93
H      -0.82      18.63       1.52
H       0.81      17.58       3.06
O      -3.10      19.27       0.72
H      -2.41      15.39       4.92
H      -0.68      13.87       5.05
O       1.44      11.97       7.77
O      -0.38      11.93       6.49
O      -4.72      17.94       1.49
H      -4.02      16.43       3.35
H       1.44      17.60       5.33
H       2.06      18.72       7.06
H       4.63      15.28       7.55
H       2.52      14.31       7.90
H       3.87      20.18       7.86
H       6.44      16.77       8.35
O       6.12      20.72       8.82
O       7.43      18.94       9.15
C      -3.50      18.29       1.48
C      -2.52      17.62       2.36
C      -1.15      17.94       2.29
C      -0.25      17.35       3.16
C      -0.69      16.42       4.13
C      -2.05      16.09       4.17
C      -2.96      16.68       3.30
C       0.25      15.83       5.10
C       0.09      14.50       5.51
C       0.92      13.95       6.49
C       1.93      14.72       7.07
C       2.14      16.04       6.64
C       1.29      16.57       5.66
C       3.22      16.89       7.21
C       3.03      18.28       7.30
C       4.04      19.11       7.77
C       5.28      18.57       8.16
C       5.48      17.19       8.07
C       4.46      16.36       7.60
C       6.33      19.45       8.73
