38

H       5.86      12.49       8.37
H       9.06      23.71      11.12
H       9.14      15.11      10.94
H       5.90      21.29       8.22
H       9.24      12.60      10.77
H       5.87      23.79       8.46
H       6.56      19.49      11.48
H       8.35      16.82       7.71
H       5.29      14.95      11.88
H       7.93      20.95       5.85
C       6.58      13.11       8.90
C       8.37      23.14      10.50
C       6.48      14.50       8.93
C       8.45      21.75      10.41
C       7.41      15.26       9.65
C       7.56      21.05       9.59
C       8.41      14.56      10.34
C       6.61      21.79       8.87
C       8.47      13.18      10.26
C       6.59      23.17       9.00
C       6.90      17.52      10.70
C       8.02      18.79       8.50
C       6.96      18.91      10.65
C       7.95      17.40       8.54
C       7.53      19.57       9.55
C       7.40      16.74       9.65
S       6.25      16.82      12.22
S       8.90      19.51       7.11
Br       5.07      15.32       7.97
Br       9.79      20.85      11.40
N       7.57      12.47       9.55
N       7.45      23.82       9.81
O       7.25      15.97      12.81
O       5.63      17.89      12.95
O       5.07      15.88      11.66
O       9.71      20.61       7.57
O       9.47      18.44       6.35
O       7.64      20.13       6.30
