20

H       2.45       3.66      23.16
H       2.21       4.07      20.71
O       2.34       0.45      27.30
O       4.62       0.43      27.36
O       4.08       3.46      15.69
O       1.81       3.62      15.75
H       4.11       0.29      19.88
H       4.34      -0.13      22.33
C       2.95       2.74      17.57
C       3.75       1.02      20.60
C       3.88       0.79      21.96
C       2.81       2.93      22.43
C       2.68       3.15      21.07
C       3.14       2.20      20.13
C       3.41       1.74      22.90
C       3.50       1.48      24.28
C       3.03       2.47      18.75
C       3.53       1.21      25.47
C       2.96       3.29      16.24
C       3.48       0.68      26.81
