48

H       9.46       9.43       4.46
H       4.19       6.96      -4.15
H       8.15       9.43      -0.15
H       5.45       8.00       0.19
H       4.36       7.22      -1.68
H       9.11      10.03       2.07
H       6.19       6.88       1.77
H       7.55      10.05      -2.25
H       9.78      11.56      -5.87
H       8.28      12.44      -6.24
H       9.38      13.05      -4.99
H       7.40      11.92      -3.93
H       8.90      11.07      -3.55
H       8.45       9.41      -5.37
H       7.04      10.30      -5.87
H       5.86       3.90       6.12
H       5.69       3.22       4.48
H       7.08       2.78       5.50
H       7.77       4.48       3.77
H       7.94       5.13       5.40
H       5.71       6.27       5.16
H       5.55       5.62       3.52
C       5.77       7.89      -6.03
C       8.10       7.70       5.96
C       5.83       8.26      -4.58
C       7.96       7.89       4.48
C       6.76       9.20      -4.06
C       7.03       7.15       3.71
C       6.84       9.34      -2.67
C       6.87       7.48       2.37
C       6.04       8.59      -1.79
C       7.57       8.54       1.75
C       5.03       7.77      -2.34
C       8.53       9.23       2.52
C       4.94       7.62      -3.72
C       8.72       8.90       3.86
C       6.24       8.52      -0.35
C       7.34       8.88       0.35
C       7.63      10.04      -4.98
C       8.21      11.31      -4.37
C       8.95      12.14      -5.42
C       6.28       5.96       4.27
C       7.20       4.79       4.66
C       6.41       3.60       5.22
O       4.63       7.64      -6.52
O       9.26       7.64       6.46
O       6.88       7.81      -6.65
O       7.00       7.66       6.61
