14

H       9.48       8.08       8.76
N       8.79       6.71      11.69
H       8.50       5.92      13.35
N      11.88       6.24      11.27
H      12.82       8.40      10.19
H      12.14       4.46      11.72
C       9.62       7.23      10.84
C      11.08       7.21      10.91
O       7.98       8.73       9.97
O       9.32       6.15      12.81
O      11.06       9.43      10.12
C       9.00       8.10       9.76
C      11.74       8.44      10.38
O      11.33       5.04      11.54
