13

O       4.08       6.33       0.39
C       7.28       4.05       1.36
C       5.38       3.44       2.31
N       6.72       3.14       2.18
C       5.19       4.59       1.54
O       3.24       2.61       2.92
H       7.22       2.38       2.71
N       6.38       4.95       0.94
C       4.50       2.53       3.10
O       5.06       1.71       3.89
C       4.03       5.49       1.35
O       3.03       5.45       2.14
H       8.34       4.05       1.11
