12

C       1.04      20.06      16.20
C       0.95      12.86      10.39
C       0.96      13.96      11.32
C       0.97      14.92      12.08
C       0.98      15.98      12.91
C       1.00      16.95      13.67
C       1.03      18.00      14.50
C       1.04      18.96      15.26
O      -0.19      12.46      10.00
O       2.09      12.43      10.03
O       2.18      20.46      16.60
O      -0.10      20.51      16.53
