26

C      10.71      12.97      16.61
C       9.98      15.69      14.27
C      10.76      14.20      16.04
H      10.71      10.20      17.44
C       9.78      14.64      15.11
H      10.59      17.75      12.29
N      13.74      11.21      17.78
N       8.79      15.53      10.80
H      11.68      14.77      16.17
N      12.80      10.26      17.83
N       9.54      16.65      10.81
H       8.92      14.00      14.90
C      13.16      12.36      17.40
N      14.03      13.48      17.31
C       8.72      15.08      12.07
N       8.03      13.85      12.33
O      15.26      13.29      17.57
O      13.59      14.59      16.99
O       7.48      13.71      13.44
O       8.03      13.00      11.42
C      11.61      10.80      17.48
C       9.95      16.91      12.07
F       9.54      12.25      16.50
C      11.76      12.17      17.17
F      10.99      16.58      14.58
C       9.46      15.92      12.95
