36

O       4.92      20.32      19.91
O       2.85      30.96       8.62
O       2.67      20.23      19.83
H       2.23      27.04      11.34
H       5.55      24.25      17.18
H       5.53      22.48      18.95
H       1.95      27.20      14.14
H       5.82      24.09      14.38
H       2.25      28.80       9.57
O       5.11      31.05       8.69
H       1.91      25.29      15.72
H       5.87      25.99      12.80
C       3.80      20.58      19.37
C       3.98      30.70       9.15
C       4.87      29.91      11.44
C       2.91      21.38      17.08
C       4.84      28.92      12.45
C       2.94      22.36      16.07
C       3.92      27.85      12.39
C       3.86      23.44      16.13
C       2.97      27.84      11.36
C       4.81      23.44      17.16
C       2.98      28.81      10.37
C       4.80      22.47      18.15
C       3.96      29.82      10.36
C       3.82      21.46      18.16
C       2.80      26.51      14.19
C       4.98      24.77      14.33
C       2.78      25.44      15.08
C       5.00      25.84      13.44
C       3.86      24.56      15.16
C       3.92      26.73      13.36
I       6.12      31.58      11.63
I       1.66      19.70      16.89
I       6.10      29.05      14.14
I       1.68      22.23      14.38
