13

O       8.60      11.29      17.62
C       7.02       8.93      20.75
O       6.53      11.79      16.93
C       4.89       9.47      20.03
C       5.39      10.26      19.01
N       5.68       8.79      20.89
H       8.68       9.83      19.72
H       4.72      10.78      18.33
H       7.64       8.39      21.47
C       7.34      11.22      17.73
H       3.82       9.35      20.19
C       6.77      10.39      18.86
C       7.60       9.72      19.77
