20

S       7.64       5.12      18.28
S       7.22       4.38      22.37
H       7.64       2.08      19.54
S       7.11       7.88      21.58
H       9.01       8.42      22.36
C       7.59       7.86      18.19
O       7.44       7.66      16.94
O       7.80       8.97      18.78
C       7.34       1.61      22.36
O       7.15       1.77      23.61
O       7.51       0.52      21.73
C       7.39       6.56      20.44
C       7.53       2.95      20.19
C       7.52       6.66      19.05
C       7.38       2.85      21.56
C       7.53       4.30      19.79
C       7.38       5.21      20.87
O       8.48       8.72      21.60
O       6.11       8.76      21.05
O       6.95       7.27      22.88
