24

O       6.96       0.44      12.35
O       5.05       1.52      12.62
O       2.47      -1.12       6.98
O       4.38      -2.20       6.72
H       7.14      -0.85       9.72
H       2.29       0.18       9.62
F       5.86       0.78       7.51
F       3.56      -1.45      11.83
C       5.00      -3.17       9.62
C       4.43       2.50       9.71
C       6.07      -0.61       9.69
C       3.35      -0.06       9.65
C       5.29       0.18      10.77
C       4.14      -0.85       8.57
C       4.50       1.01       9.69
C       4.93      -1.68       9.64
C       5.31       0.21       8.60
C       4.12      -0.88      10.73
N       5.82       0.77      12.01
N       3.61      -1.44       7.33
O       6.14      -3.72       9.67
O       3.29       3.05       9.67
O       3.86      -3.73       9.58
O       5.57       3.06       9.75
