54

O      10.66      17.39       4.99
O      14.20      17.47       8.27
H      13.53      23.43       6.77
H      14.55      18.88       9.81
O      11.68      15.18       6.24
O      15.56      27.16       9.85
H      16.51      22.61      12.02
O      16.82      26.45       8.08
O      12.30      15.62       8.37
H      10.54      15.86       3.64
H      12.18      16.14       4.25
H      10.66      17.90       2.25
H      12.18      18.38       3.01
H      13.33      16.36       2.09
H      12.61      17.30       0.77
H      11.83      15.81       1.33
H      16.19      17.17       8.53
H      15.81      18.47       7.37
H      15.40      15.45       6.94
H      14.91      16.70       5.78
H      17.31      17.45       5.53
H      17.14      15.72       5.14
H      17.82      16.21       6.70
H      12.01      22.05       5.45
H      15.00      24.42       7.64
H      16.78      25.03      11.50
H      15.69      20.37      11.39
H      11.06      19.91       4.86
C      16.11      26.27       9.13
C      12.32      17.40       6.80
C      15.90      24.84       9.52
C      11.66      19.42       5.63
C      11.55      18.06       5.79
C      13.28      18.15       7.51
C      13.33      19.57       7.44
C      12.52      20.19       6.44
C      14.11      20.42       8.34
C      14.22      21.81       8.05
C      12.10      15.97       7.15
C      13.48      22.36       6.97
C      12.62      21.60       6.23
C      14.68      19.93       9.56
C      15.31      20.76      10.44
C      15.50      22.15      10.16
C      14.99      22.66       8.93
C      16.14      23.02      11.07
C      16.31      24.36      10.78
C      15.27      24.01       8.61
C      11.27      16.64       3.89
C      11.59      17.51       2.69
C      12.38      16.70       1.66
C      15.54      17.45       7.70
C      15.65      16.45       6.56
C      17.06      16.46       5.95
