30

C      19.04       9.02      10.73
C      19.01      13.13       4.92
C      17.94       9.05       9.88
C      17.91       9.88       8.75
C      20.11      12.33       5.23
C      20.14      11.54       6.39
C      17.92      13.19       5.81
C      17.96      12.45       6.98
C      20.13       9.88      10.50
C      20.09      10.74       9.40
C      19.01      10.75       8.50
C      19.04      11.60       7.29
H      17.10       8.38      10.09
H      20.95      12.31       4.53
N      16.80       9.85       7.91
N      21.25      10.74       6.64
H      20.98       9.87      11.18
H      20.91      11.43       9.23
H      17.14      12.52       7.69
H      17.07      13.83       5.57
O      20.14      14.19       3.13
O      17.91       7.69      12.33
H      16.93      10.24       6.98
H      16.27       8.98       7.92
H      21.12      10.00       7.32
O      20.19       7.78      12.39
H      21.78      10.47       5.82
O      17.86      14.27       3.20
C      19.00      13.92       3.66
C      19.05       8.09      11.90
