19

C      12.49      13.84      17.32
H      11.42      13.57      22.64
H      13.93      14.77      19.37
H       9.82      12.56      21.01
O       9.08      11.71      18.95
H      11.78      14.48      16.78
H      12.47      12.87      16.82
H      13.50      14.27      17.22
O       9.97      12.75      17.14
C       9.93      12.48      18.39
C      13.75      14.84      22.05
O      13.50      14.69      23.30
O      14.75      15.46      21.55
C      10.96      13.11      19.28
C      12.77      14.23      21.09
C      12.13      13.74      18.78
C      11.61      13.61      21.57
C      13.01      14.29      19.72
C      10.72      13.05      20.66
