24

H      25.34      11.93       7.03
H      29.27       9.16       7.95
H      27.21       9.80       9.84
H      27.40      11.29       5.14
N      24.95       9.09       7.88
N      29.66      12.00       7.10
O      27.50       7.16       6.41
O      27.11      13.93       8.57
O      27.15       8.44       4.54
O      27.46      12.65      10.44
O      24.39       9.22       8.99
O      24.51       8.44       6.92
O      30.22      11.87       6.00
O      30.10      12.65       8.06
C      27.32       8.26       5.79
C      27.29      12.83       9.20
C      26.21       9.82       7.70
C      28.41      11.27       7.29
C      26.23      11.32       7.22
C      28.38       9.77       7.76
C      27.29      11.61       8.34
C      27.32       9.48       6.65
C      27.26      10.12       8.80
C      27.35      10.97       6.18
