33

C       2.72      -4.59      14.28
H      -3.69      -5.17      14.00
C       2.16      -3.81      15.44
H      -1.42      -5.13      15.05
C       1.44      -2.63      15.19
H       0.11      -7.54      11.84
C       0.90      -1.89      16.24
H      -2.14      -7.53      10.76
C       1.08      -2.32      17.56
H       0.79      -6.00      15.18
C       1.79      -3.50      17.82
H       1.42      -7.18      14.00
C       2.32      -4.24      16.76
C       0.59      -1.48      18.70
H       3.37      -5.41      14.63
N       1.68      -5.18      13.41
H       3.34      -3.94      13.64
O      -4.38      -6.55      10.38
H       1.31      -2.28      14.16
O      -5.38      -5.95      12.33
H       0.34      -0.97      16.05
O      -0.07      -0.42      18.42
H       1.92      -3.82      18.85
O       0.90      -1.87      19.87
H       2.88      -5.15      16.97
C      -4.37      -6.29      11.63
C      -3.05      -6.35      12.31
C      -2.85      -5.69      13.53
C      -1.58      -5.67      14.12
C      -0.50      -6.33      13.51
C      -0.72      -7.03      12.31
C      -1.98      -7.03      11.71
C       0.88      -6.23      14.10
