48

C       6.04      16.18       4.50
C       6.95      15.82       3.40
C       6.48      14.94       2.40
C       7.31      14.49       1.40
C       8.68      14.92       1.35
C       9.12      15.85       2.35
C       8.28      16.28       3.36
C       9.50      13.60      -0.50
H       5.44      14.61       2.44
H       6.95      13.80       0.63
H      10.16      16.17       2.31
H       8.65      16.94       4.13
C       8.32      12.09      -1.77
C       6.80      10.67      -3.00
C      10.58      12.30      -2.03
C       7.64      10.28      -4.10
C       5.49      10.10      -2.93
C      12.01      11.03      -3.48
H       8.63      10.72      -4.19
C       7.21       9.32      -4.99
H       4.85      10.42      -2.10
C       5.07       9.15      -3.83
H       7.86       8.99      -5.80
C       5.52       7.63      -5.78
C      13.03      11.19      -4.47
C      11.43       9.72      -3.31
C      13.39      10.15      -5.29
H      10.69       9.57      -2.53
N       9.65      14.53       0.51
N       7.09      11.54      -2.00
N      11.72      12.13      -2.77
N      10.67      13.26      -1.09
N       9.45      11.62      -2.34
N       8.30      13.11      -0.88
C       5.94       8.73      -4.86
H       4.09       8.69      -3.75
H      13.48      12.18      -4.56
H      14.15      10.27      -6.06
H      11.38       7.69      -4.01
C      12.79       8.88      -5.13
O       6.48      16.68       5.62
O       4.79      15.97       4.38
O       4.36       7.14      -5.62
O       6.36       7.21      -6.65
C      11.82       8.68      -4.13
O      12.69       6.60      -5.93
O      14.17       7.97      -6.84
C      13.23       7.78      -6.02
