16

C      11.04       1.53       7.03
O      10.00       1.65       6.28
O      15.87       0.46       8.59
C      16.00       1.07       7.48
O      17.04       1.67       7.06
C      12.47       1.04       5.02
H      13.44       1.39       8.27
H      15.86       0.82       4.75
H      13.80       0.73       3.35
H      11.55       1.03       4.43
C      12.37       1.25       6.40
C      13.52       1.24       7.19
C      14.78       1.08       6.60
C      14.88       0.92       5.21
C      13.72       0.87       4.43
O      10.96       1.69       8.29
