32

F      -3.25      12.53       7.49
F       1.56      10.99       5.44
H      -4.50      16.35       8.11
H       3.69       7.69       6.46
H      -1.67      18.36       5.51
H       0.68       5.87       9.00
H      -2.01       8.77       7.82
H       0.38      14.78       5.23
C      -2.80      16.81       6.70
C       1.75       7.16       7.48
C      -1.67      10.80       7.12
C      -0.02      12.72       5.81
C      -3.91      17.06       7.54
C       3.13       7.10       7.18
C      -0.40      10.41       6.60
C      -1.27      13.12       6.37
C       0.37      11.38       5.93
C      -2.06      12.13       6.99
C       0.16       9.13       6.80
C      -1.72      14.45       6.37
C      -2.21      15.56       6.48
C       0.85       8.15       7.06
C      -2.46      18.08       6.20
C       1.59       6.18       8.48
C      -2.51       9.77       7.78
C       0.82      13.76       5.16
N      -4.20      18.37       7.55
N       3.73       6.20       7.96
N      -3.31      19.00       6.71
N       2.78       5.62       8.77
O      -3.63       9.94       8.24
O       1.89      13.57       4.60
