13

H       6.96      13.12       3.62
O       4.11      11.60       7.15
C       5.11      11.19       6.49
H       5.28      12.80       5.10
O       5.97      10.37       6.96
C       5.30      11.70       5.07
H       4.42      11.38       4.48
O       8.31      12.12       6.29
C       7.49      12.24       4.03
O       9.26      13.60       4.92
C       8.41      12.70       5.15
H       8.13      11.83       3.23
N       6.54      11.19       4.46
