34

H       3.89       7.22       4.16
H       9.73       6.88      -4.31
H       9.52       6.39      -1.88
H       4.14       6.89       1.71
H       5.77       8.56      -4.31
H       8.03       6.17       4.70
H       5.41       6.32      -0.21
H       8.38       6.97       0.28
C       7.84       7.97      -5.94
C       5.89       7.17       6.02
C       7.76       7.74      -4.47
C       5.96       6.80       4.58
C       6.59       8.09      -3.78
C       7.17       6.33       4.05
C       6.51       7.85      -2.42
C       7.26       6.04       2.70
C       7.53       7.21      -1.69
C       6.21       6.31       1.80
C       8.70       6.89      -2.41
C       4.98       6.70       2.37
C       8.82       7.15      -3.77
C       4.85       6.91       3.74
C       7.45       6.86      -0.28
C       6.34       6.44       0.35
N       8.51       5.39       2.25
N       5.31       8.40      -1.75
O       8.96       7.77      -6.51
O       4.75       7.18       6.58
O       6.77       8.32      -6.54
O       7.00       7.47       6.58
O       9.57       5.80       2.74
O       8.41       4.46       1.44
O       5.48       9.13      -0.76
O       4.21       8.13      -2.26
