24

N      -0.82       4.71       4.91
H       1.24       5.56       0.49
C       2.56       7.43       2.85
N      -1.73       4.39       8.76
H       0.14       4.49       2.45
C       0.37       5.34       5.04
N       0.06       5.27      10.73
H       2.28       7.26       4.98
C      -0.30       5.05       7.01
H       3.23       8.28       2.91
C      -0.54       4.95       8.43
H       1.31       5.82       9.15
C       0.35       5.38       9.43
H      -1.36       4.61      12.10
C      -1.12       4.70      11.04
H      -2.97       3.80      10.31
C      -2.01       4.26      10.06
C       1.43       5.91       1.50
N       2.26       6.98       1.61
C       0.83       5.32       2.60
N       0.74       5.58       6.33
C       1.10       5.82       3.88
N      -1.24       4.54       6.18
C       2.02       6.86       4.00
