38

H      -3.37      -0.67      11.02
H      -6.97       7.40      11.82
H     -10.32       6.16       9.40
H     -10.67       3.76       8.90
H      -9.81       1.44       8.90
H      -7.94      -0.12       9.33
H      -4.57       1.14      11.72
H      -4.49       3.42      12.66
H      -5.35       5.74      12.66
N      -4.68      -2.51       8.74
H      -7.39       9.61      11.19
N      -9.07      10.61      10.41
N     -10.26      10.20       9.86
N      -3.64      -2.13       9.52
H      -6.69      -1.90       8.52
H     -11.14       8.33       9.47
C     -10.28       8.86       9.86
C      -4.06      -1.12      10.32
C      -9.09       8.35      10.42
C      -5.41      -0.82      10.04
C      -7.54       6.62      11.32
C      -8.69       6.95      10.58
C      -9.42       5.92       9.98
C      -9.02       4.58      10.05
C      -7.82       4.26      10.76
C      -7.09       5.30      11.42
C      -9.74       3.52       9.41
C      -9.26       2.23       9.41
C      -8.02       1.90      10.05
C      -7.32       2.93      10.76
C      -6.09       2.62      11.42
C      -5.42       3.66      12.13
C      -5.89       4.95      12.13
C      -7.43       0.64       9.93
C      -6.16       0.36      10.46
C      -5.54       1.34      11.26
C      -5.75      -1.75       9.04
C      -8.37       9.51      10.74
