22

O       2.87       7.65      24.44
O       2.83       5.40      24.17
O      -4.08       5.45      23.95
O      -4.14       7.71      23.73
H      -3.29       8.01      26.03
H       1.68       7.82      26.53
C       2.28       6.54      24.30
C      -3.54       6.59      23.87
C      -2.05       6.63      24.01
C      -1.43       7.29      25.11
C      -1.27       5.97      23.10
C      -2.20       7.94      26.11
C      -1.59       8.50      27.20
C       0.78       6.57      24.26
C       0.14       5.94      23.21
C       0.00       7.25      25.25
C       0.60       7.84      26.39
C      -0.18       8.44      27.35
F       0.82       5.29      22.24
F      -1.83       5.32      22.04
F      -2.31       9.11      28.17
F       0.38       8.97      28.46
