25

O      -0.24       1.91       2.95
H      -2.50       0.62       4.85
H      -1.83       2.29       4.81
H       0.32       1.31       5.83
O      -0.97      -0.24       3.00
H      -1.39       2.67       6.99
H      -2.30       1.21       7.41
O      -0.17       0.33       8.92
O      -0.38       2.58       9.18
H      -2.48      -0.97       7.01
H       1.46      -0.65       5.30
H      -2.24      -3.42       7.12
H      -0.15      -4.51       6.30
H       1.69      -3.12       5.38
C      -0.89       0.94       3.48
C      -1.58       1.22       4.79
C      -0.68       0.87       6.01
C      -1.28       1.60       7.22
C      -0.54       1.49       8.54
C      -0.52      -0.63       6.15
C      -1.56      -1.43       6.65
C      -1.42      -2.82       6.72
C      -0.25      -3.43       6.26
C       0.78      -2.65       5.76
C       0.65      -1.26       5.71
