26

C       6.70       5.62      19.16
C       6.71       5.74      20.55
C       6.74       8.50      24.68
C       6.74       8.37      23.29
C       6.68       6.12      24.87
C       6.67       5.98      23.50
C       6.66       8.00      18.97
C       6.67       8.13      20.35
C       6.69       7.00      21.18
C       6.70       7.12      22.66
O       6.76       8.45      27.66
O       6.70       6.19      27.55
H       6.73       4.83      21.14
H       6.76       9.29      22.70
H       6.66       5.24      25.51
H       6.64       4.98      23.07
H       6.64       8.88      18.33
H       6.65       9.13      20.77
C       6.68       6.76      16.82
C       6.73       7.35      27.02
Br       6.72       3.81      18.53
Br       6.79      10.30      25.31
O       6.74       5.67      16.18
O       6.62       7.92      16.30
C       6.68       6.75      18.33
C       6.72       7.37      25.52
