26

O       4.17       2.95      19.83
O       3.91       2.77      22.07
O      -4.75      -3.81      18.21
O      -5.23      -3.61      20.41
H       2.07       2.32      18.62
H       0.08       0.89      18.24
H       0.59      -0.82      22.16
H       2.48       0.74      22.58
H      -3.55      -2.37      21.72
H      -1.57      -0.92      22.05
H      -0.71      -1.14      17.83
H      -2.75      -2.55      17.51
C       3.56       2.51      20.90
C       1.72       1.64      19.40
C       0.62       0.82      19.18
C       0.18      -0.07      20.18
C       0.88      -0.11      21.40
C       1.96       0.74      21.63
C       2.39       1.62      20.63
C      -3.27      -2.55      19.59
C      -2.92      -2.10      20.87
C      -1.81      -1.30      21.05
C      -0.99      -0.93      19.97
C      -1.34      -1.40      18.69
C      -2.47      -2.19      18.50
C      -4.49      -3.39      19.36
