20

C       0.90      11.91      16.11
C       0.14      11.19      15.20
C       0.54      11.13      13.85
C       1.71      11.81      13.49
C       2.43      12.50      14.46
H      -1.07      10.24       9.54
H       0.19      11.66      11.17
H      -0.83       8.77      14.23
H      -2.05       7.49      12.47
H       0.64      11.98      17.17
H      -0.76      10.68      15.53
H       2.11      11.77      12.48
H       3.36      13.01      14.23
N      -1.61       8.83      10.96
N       2.03      12.55      15.75
C      -0.99       9.97      10.59
C      -0.29      10.75      11.51
C      -0.22      10.35      12.85
C      -0.88       9.16      13.21
C      -1.56       8.43      12.24
