38

H       8.14      11.43       6.35
H       4.62      18.45       7.98
H       3.49      16.36       8.79
H       8.85      13.42       5.00
H       4.65      12.62      10.51
H       9.39      17.80       5.33
H       3.07      12.71       9.06
H       8.42      16.73       3.58
C       4.35      15.79       8.43
C       8.18      14.04       5.60
C       6.46      19.94       6.94
C       6.78      10.02       8.09
C       7.45      12.07       6.90
C       5.36      17.83       7.47
C       6.69      11.52       7.92
C       6.37      18.45       6.75
C       5.78      12.32       8.65
C       7.31      17.68       6.03
C       5.51      13.64       8.21
C       7.25      16.26       6.08
C       6.38      14.24       7.24
C       6.32      15.64       6.97
C       7.36      13.44       6.59
C       5.34      16.43       7.64
C       4.40      14.43       8.69
C       8.12      15.39       5.31
C       5.34      11.91      10.00
C       8.41      18.35       5.30
C       3.17      13.80       9.26
C       8.85      15.83       4.09
O       5.37      20.58       6.82
O       7.94       9.51       7.99
O       5.68       9.41       8.18
O       7.58      20.40       7.32
O       5.76      10.93      10.61
O       8.33      19.42       4.71
O       2.27      14.42       9.82
O       9.80      15.24       3.60
