29

C       7.48       3.48      24.62
C       7.48       2.94      17.85
C       7.77       4.27      23.50
C       7.77       2.15      18.97
H       6.46       3.43      26.52
H       6.46       2.99      15.94
C       7.18       5.54      23.43
H       5.90       6.96      24.46
C       7.18       0.88      19.03
H       5.90      -0.54      18.00
H       7.90       2.48      24.74
C       8.65       2.66      20.07
C       8.65       3.76      22.39
H       7.90       3.94      17.72
H       7.38       6.20      22.58
C       7.81       3.21      21.23
H       7.38       0.22      19.88
H       9.31       2.97      22.77
H       9.31       3.45      19.69
H       9.29       4.57      22.02
H       9.29       1.85      20.45
H       7.15       2.41      21.61
H       7.15       4.01      20.85
N       6.11       5.22      25.55
N       6.11       1.20      16.91
C       6.66       4.00      25.62
C       6.66       2.42      16.85
C       6.36       5.97      24.47
C       6.36       0.45      18.00
