14

O       1.93       0.97       1.57
C       0.96       4.34       7.18
H       2.84       2.10       3.52
C       1.90       2.39       3.98
C       0.77       2.02       3.34
H      -0.23       2.26       3.71
H       2.95       3.36       5.63
C       1.96       3.14       5.22
C       0.89       3.59       5.91
H      -0.13       3.41       5.57
C       0.80       1.27       2.06
O      -0.17       4.64       7.69
O       2.11       4.61       7.68
O      -0.34       1.00       1.55
