84

H       1.92      19.72       6.57
H       1.86      19.85       4.13
H       2.61      19.43      -0.33
H       0.34      25.00      -5.52
H       0.16      23.31      -4.72
H       0.17      21.26      -3.44
H       1.28      19.82      -2.17
H       2.07      25.28     -10.15
H       2.04      23.11      -9.05
H       2.66      19.43      -6.45
H       1.08      12.15      -8.75
H       0.68      13.62      -7.67
H       0.45      15.74      -6.53
H       1.48      17.64      -5.87
H       2.97       8.10      -6.63
H       2.77      10.12      -5.29
H       2.91      14.24      -3.32
H       0.42      15.75       4.02
H       0.10      15.98       2.14
H       0.13      15.91      -0.28
H       1.47      15.52      -2.13
H       0.76       9.13     -10.42
H      -0.17      15.83       7.45
H      -0.22      27.93      -7.31
H       3.88      11.50      -4.98
H       3.16      19.40       3.01
H       3.28      22.29      -8.08
C       1.07      17.72       8.14
C       2.07       7.66      -9.13
C       1.10      27.61      -9.24
C       1.57      18.87       5.99
C       1.60      18.91       4.61
C       2.07      18.70       1.59
C       2.02      18.68       0.20
C       0.54      26.19      -7.25
C       0.70      25.00      -6.55
C       0.74      22.47      -5.11
C       0.74      21.30      -4.37
C       1.06      17.76       6.68
C       1.24      17.77       3.83
C       1.35      17.74       2.36
C       1.35      17.69      -0.51
C       1.36      17.67      -1.98
C       1.33      18.87      -2.71
C       1.67      25.20      -9.14
C       1.71      23.98      -8.48
C       2.12      21.45      -6.79
C       2.06      20.25      -6.07
C       1.42      10.08      -8.93
C       1.48      11.28      -8.23
C       1.21      13.75      -6.73
C       1.06      14.96      -6.08
C       1.10      26.33      -8.55
C       1.29      23.86      -7.13
C       1.40      22.60      -6.35
C       1.38      20.15      -4.86
C       1.37      18.88      -4.11
C       1.44      17.65      -4.78
C       2.54       9.00      -7.08
C       2.48      10.17      -6.34
C       2.57      12.91      -4.94
C       2.38      14.11      -4.26
C       0.55      16.67       5.92
C       0.73      16.66       4.53
C       0.69      16.73       1.62
C       0.70      16.68       0.23
C       2.02       8.91      -8.37
C       1.99      11.37      -6.92
C       1.94      12.66      -6.19
C       1.63      15.16      -4.81
C       1.49      16.44      -4.08
C       1.43      16.46      -2.68
O       0.17      28.47      -8.94
O       0.14      17.03       8.73
O       1.16       7.48     -10.04
O       2.02      27.85     -10.10
O       3.01       6.82      -8.90
O       1.99      18.35       8.77
O       0.81      10.08     -10.14
O      -0.04      15.60       6.49
O      -0.11      27.21      -6.63
O       3.42      12.03      -4.31
O       2.86      19.68       2.12
O       2.91      21.40      -7.90
