20

H       9.63       8.72      10.54
H      11.43       6.51      10.69
O      14.04       8.76       8.67
O       7.16       6.31       8.55
O      14.00       6.49       8.72
O       7.20       8.59       8.51
H      11.57       6.36       6.70
H      11.30       9.89       8.55
H       9.89       5.18       8.69
H       9.77       8.56       6.56
C      13.44       7.64       8.69
C       7.76       7.44       8.54
C      10.98       8.85       8.58
C      10.22       6.23       8.66
C      10.08       8.20       9.69
C      11.12       6.88       7.55
C       9.24       7.45       8.58
C      11.95       7.63       8.66
C      10.15       8.11       7.47
C      11.04       6.96       9.77
