20

N       4.26      16.14       2.62
C       4.64      14.23       4.62
N       5.21      11.08       7.45
C       3.46      14.99       4.56
H       2.67      14.84       5.29
C       5.40      15.43       2.67
H       6.12      15.62       1.88
C       3.31      15.93       3.55
H       2.39      16.52       3.44
C       5.62      14.47       3.64
H       6.53      13.86       3.61
H       2.74      12.55       5.69
H       6.98      13.43       5.83
C       3.75      12.40       6.08
H       3.17      10.75       7.35
C       4.83      13.17       5.63
H       7.23      11.53       7.42
C       6.11      12.87       6.14
C       3.98      11.38       6.98
C       6.26      11.82       7.03
