16

S      22.03      13.50      18.31
S      21.25      13.70      22.41
C      24.47      12.22      18.30
O      25.46      11.70      18.90
O      24.31      12.35      17.04
C      23.22      12.76      20.51
C      20.04      14.46      20.20
C      18.82      15.01      22.38
C      19.92      14.45      21.58
C      21.25      13.84      19.81
C      22.01      13.38      20.90
C      23.37      12.75      19.13
H      19.29      14.89      19.55
Cl      24.31      12.11      21.66
O      17.85      15.54      21.74
O      18.94      14.91      23.65
