16

O      19.85      12.51      29.88
C      18.76      11.98      29.50
O      17.57      12.40      29.73
S      20.22       7.54      26.69
S      17.26      10.11      28.18
C      17.62       7.71      26.62
C      19.85       9.97      28.26
C      18.67       6.92      26.17
C      18.79      10.75      28.70
C      19.44       8.85      27.50
C      18.04       8.82      27.38
F      16.32       7.47      26.37
F      21.15      10.23      28.52
O      17.46       5.32      24.99
O      19.73       5.10      25.16
C      18.61       5.69      25.38
