20

C      12.87      15.49       3.05
C      14.90      14.37       4.79
C      13.99      16.22       3.44
C      13.76      13.65       4.38
C      14.96      15.67       4.28
C      12.77      14.17       3.54
C      14.69      17.55       3.33
C      15.80      16.94       4.28
H      11.92      13.55       3.27
H      15.03      17.82       2.32
H      14.14      18.41       3.74
H      15.90      17.43       5.25
H      16.80      16.83       3.83
C      15.96      13.84       5.69
C      11.81      16.04       2.16
O      15.85      12.63       6.08
O      16.90      14.65       5.99
O      10.82      15.28       1.88
O      11.99      17.24       1.75
F      13.56      12.37       4.79
