32

H       9.57       4.05       8.14
H       5.95      -4.55       9.03
H       9.49       1.54       8.09
H       6.03      -2.04       9.08
H       9.93      -2.17       7.25
H       5.59       1.67       9.92
C       7.67       5.76       8.87
C       7.86      -6.26       8.30
C       7.88      -4.77       8.14
C       7.64       4.27       9.03
C       6.82      -4.01       8.65
C       8.71       3.51       8.53
C       6.86      -2.62       8.68
C       8.67       2.12       8.49
C       8.00      -1.96       8.20
C       7.52       1.46       8.97
C       9.06      -2.69       7.64
C       6.47       2.19       9.53
C       8.98      -4.08       7.61
C       6.54       3.58       9.56
N       8.19      -0.56       8.24
N       7.33       0.06       8.93
N      10.12      -4.76       6.94
N       5.41       4.26      10.23
O       6.55       6.34       9.00
O       8.97      -6.85       8.17
O       8.78       6.30       8.57
O       6.75      -6.80       8.60
O      11.24      -4.60       7.44
O       9.88      -5.37       5.89
O       4.29       4.10       9.73
O       5.65       4.87      11.28
