26

H      17.06       8.66       8.15
H      17.35      10.83       5.12
H      17.46      12.75       6.46
O      18.34       7.19       6.38
O      18.11       8.44       4.49
O      18.40      14.04       8.50
H      16.18      11.45       8.26
O      18.36      12.66      10.30
H      16.14       9.54       6.93
H      19.59       8.63       8.05
H      20.44       9.55       6.81
H      20.49      11.40       8.21
H      19.59      10.51       9.45
H      19.10      10.81       5.03
H      19.21      12.69       6.42
H      17.08      10.57       9.50
C      18.24       8.30       5.75
C      18.37      12.89       9.04
C      17.05       9.57       7.54
C      18.26      10.83       5.74
C      18.32      12.09       6.64
C      17.08      10.84       8.43
C      19.56       9.56       7.47
C      19.58      10.80       8.39
C      18.28       9.56       6.60
C      18.33      11.68       8.12
