28

C       6.83       9.81      18.38
C       7.03      11.02      17.73
O       7.22      13.27      16.04
O       9.24      12.54      15.30
O       6.87       7.40      19.84
O       7.51       1.92      15.14
O       8.72       1.29      16.93
H       9.36      10.06      15.44
H       8.95       7.86      16.54
C       7.93      11.10      16.66
H       6.77       6.65      16.07
C       8.64       9.97      16.25
H       7.03       4.37      15.10
C       8.40       8.74      16.87
H       8.64       2.95      18.81
C       7.49       8.66      17.93
H       8.33       5.21      19.82
C       7.27       7.38      18.67
H       6.15       9.74      19.23
C       7.54       6.08      18.01
H       6.50      11.92      18.04
C       7.20       5.84      16.67
C       8.14      12.41      15.95
C       7.34       4.57      16.12
C       7.85       3.52      16.90
C       8.04       2.15      16.33
C       8.22       3.76      18.23
C       8.05       5.02      18.78
