26

C      29.42      14.78      13.18
H      26.01      14.16      14.02
H      26.15      15.83      14.67
H      24.31      14.95      12.36
N      28.22      17.07       8.87
N      30.19      16.20      10.70
N      24.11      16.84      13.25
O      25.58      17.21       8.44
O      24.20      17.28      10.24
O      30.33      14.17      12.55
O      29.21      14.80      14.44
O      28.23      16.28       7.94
O      28.54      18.26       8.85
O      30.88      16.85      11.49
O      30.56      15.67       9.65
O      24.63      17.95      13.42
O      22.94      16.54      13.51
C      25.31      17.07       9.66
C      26.13      16.11      11.82
C      26.41      16.58      10.55
C      27.78      16.55      10.20
C      28.75      16.06      11.08
C      28.43      15.52      12.34
C      27.09      15.60      12.69
C      26.08      15.23      13.76
C      24.99      15.73      12.73
