23

C       5.57      13.01       7.71
C       6.67      13.51       6.82
O       4.79      13.92       8.22
C       6.86      14.88       6.59
C      10.00      14.85       4.47
H       6.17      15.59       7.04
C      12.24      14.52       3.62
O       5.48      11.78       7.95
H      13.17      13.95       3.55
C      11.19      14.10       4.42
H      11.30      13.19       5.01
H       8.08      16.39       5.66
C       8.85      14.40       5.26
C       7.93      15.32       5.81
H       9.31      12.30       5.04
C       8.63      13.03       5.48
H      11.02      17.24       2.26
H       7.37      11.53       6.39
C      11.04      16.37       2.91
C       7.55      12.59       6.23
H       9.05      16.64       3.64
C       9.95      16.03       3.70
N      12.17      15.63       2.86
