17

C       3.86       2.76       5.98
C       5.03       2.60       2.55
C       2.76       3.52       5.57
C       6.12       1.85       2.95
C       4.20       2.93       3.65
C       4.69       2.43       4.87
S       2.74       3.81       3.85
S       6.16       1.55       4.67
O       0.76       4.69       5.68
C       1.65       4.06       6.36
O       1.64       3.86       7.62
O       4.08       2.40       7.26
C       7.20       1.33       2.10
H       4.90       1.87       7.31
H       4.86       2.87       1.51
O       7.11       1.56       0.85
O       8.13       0.68       2.70
