26

N       0.41      -5.00      13.71
H       1.27      -7.56      10.51
O      -3.27      -4.53      10.26
O      -1.80      -5.40       8.77
O       0.80      -9.35      13.88
H       0.57      -4.82      10.79
O       2.20      -7.57      13.74
H       0.27      -4.03      13.46
H       0.08      -5.13      14.67
H      -3.03      -6.08      14.09
H      -3.61      -5.45      12.65
H      -1.88      -8.60      12.75
H      -1.44      -9.24       9.80
H      -1.59      -7.87       8.86
C      -2.24      -5.26       9.95
C      -1.34      -7.75      12.33
C      -1.12      -7.51      10.80
C       1.11      -8.16      13.46
C      -1.48      -5.98      10.99
C       0.04      -5.67      11.24
C       0.41      -7.17      11.07
C       0.16      -7.43      12.60
C      -0.17      -5.87      12.77
C      -1.72      -6.21      12.51
N      -2.78      -5.60      13.23
N      -1.75      -8.27       9.79
