18

C       7.56       7.80      18.18
S       7.58       5.06      18.25
S       7.34       4.31      22.35
C       7.45       1.54      22.33
C       7.34       6.47      20.42
O       6.43       8.52      21.03
N       7.09       7.53      21.38
C       7.55       2.87      20.15
C       7.45       6.60      19.03
O       7.30       1.69      23.59
H       7.64       2.00      19.50
O       7.59       0.44      21.70
C       7.45       2.77      21.53
O       7.32       7.62      16.94
C       7.52       4.22      19.75
C       7.40       5.12      20.84
O       7.92       8.88      18.74
O       7.53       7.32      22.53
