32

O       5.28      13.65       9.28
O       1.04       8.40      16.27
O       5.60       7.15      15.43
O       0.72      14.90      10.11
H       5.12      14.41       8.62
H       1.20       7.65      16.94
H       4.91      11.89      11.14
H       1.41      10.14      14.39
H       5.54       9.15      13.69
H       0.77      12.88      11.84
H       6.45       7.65      15.43
H      -0.13      14.40      10.11
C       3.34       6.94      17.18
C       2.99      15.13       8.39
C       3.37       7.80      15.98
C       2.95      14.25       9.57
C       2.23       8.58      15.62
C       4.09      13.47       9.92
C       2.28       9.55      14.63
C       4.03      12.49      10.90
C       3.50       9.76      13.97
C       2.81      12.27      11.56
C       4.63       8.99      14.26
C       1.68      13.05      11.27
C       4.56       7.99      15.23
C       1.75      14.06      10.31
N       3.69      10.72      12.94
N       2.63      11.31      12.58
O       4.42       6.59      17.72
O       1.92      15.48       7.82
O       2.16       6.63      17.66
O       4.16      15.47       7.94
