25

H       0.01       5.60       1.44
H       1.64       4.82       5.26
C       0.71       5.35       2.22
H       3.56       4.27       3.37
C       1.58       4.90       4.18
H       4.50       4.05       1.50
C       2.55       4.63       3.25
H       5.51       3.99      -0.78
C       2.62       4.84       0.75
H       4.17       4.79      -2.74
C       3.93       4.38       0.63
H       2.95       5.36      -4.28
C       4.49       4.35      -0.64
C       3.75       4.78      -1.74
H      -0.09       6.42      -1.49
C       2.45       5.23      -1.49
H      -0.83       7.24      -4.05
C       2.01       5.74      -3.88
N       0.44       5.35       3.52
C       0.41       6.33      -2.44
N       1.99       4.92       2.01
C       0.06       6.71      -3.71
N       1.89       5.27      -0.28
N       1.65       5.72      -2.56
N       1.06       6.33      -4.59
