43

O       8.18       8.57      10.42
O      16.12       4.74      12.63
H      10.79       8.72      16.13
H      13.51       9.61      15.62
O       6.90      10.28       7.56
O      17.40       1.41      12.69
C       9.19       8.56      11.30
C      15.11       5.51      13.06
O       6.01       8.68       8.91
O      18.29       3.37      11.97
C      10.16       9.57      11.41
C      14.13       5.10      14.00
H      10.18      10.41      10.71
H      14.11       4.07      14.37
C      11.11       9.51      12.43
C      13.19       6.01      14.45
H      11.83      10.32      12.51
H      12.47       5.67      15.19
C      11.13       8.45      13.35
C      13.17       7.34      13.99
H      10.23       6.53      13.82
H      14.07       8.70      12.57
C      10.20       7.40      13.17
C      14.10       7.70      12.99
H       8.52       6.63      12.04
H      15.77       7.11      11.76
C       9.23       7.45      12.18
C      15.06       6.82      12.54
H       8.18      10.60       9.89
H      16.11       3.27      14.12
C       8.17       9.60       9.42
H      12.23       7.77      16.57
C      16.13       3.35      13.03
H       9.05       9.49       8.77
H      15.25       2.85      12.61
C       6.91       9.48       8.57
C      17.39       2.68      12.50
H      10.88       7.01      15.71
C      12.15       8.36      14.49
H      13.42      10.10      13.92
C      11.47       7.93      15.79
C      12.83       9.71      14.76
H      12.07      10.47      15.01
