26

H       2.71       4.84      14.34
H       2.09       8.67      16.40
H       2.84       4.96      11.86
H       2.29       8.60      18.89
H       3.74       9.02      14.55
H       4.42       5.06      16.16
C       3.38       6.99      10.29
C       3.47       6.84      20.43
C       2.96       5.78      13.85
C       2.64       7.87      16.89
C       3.02       5.85      12.47
C       2.74       7.83      18.27
C       3.32       7.05      11.79
C       3.42       6.79      18.93
C       3.55       8.19      12.58
C       4.00       5.79      18.14
C       3.51       8.13      13.97
C       3.92       5.82      16.75
C       3.22       6.92      14.63
C       3.24       6.87      16.10
Br       4.05       9.88      11.83
Br       5.04       4.37      18.89
O       3.75       5.88       9.79
O       3.57       8.00      20.95
O       3.03       8.03       9.65
O       3.36       5.75      21.07
