28

C       2.97      15.13       6.48
C       6.59      10.07       2.59
H       5.99      16.09       7.32
H       7.06      12.51       0.46
H       2.14      14.65       5.98
H       6.33       9.49       3.48
H       6.73      15.40       4.28
C       4.34      15.02       6.21
C       6.52      11.45       2.38
H       4.25      11.17       4.29
H       5.63      12.28       6.52
C       5.58      12.71       5.52
H       5.34      14.31       2.06
C       5.41      13.85       3.05
C       6.18      14.45       4.28
H       7.84      12.84       4.82
H       3.14      13.71       3.73
C       4.80      12.12       4.30
C       4.95      14.14       5.21
C       6.02      12.43       3.35
N       3.98      16.42       7.93
N       7.29      10.40       0.53
N       2.76      15.96       7.51
N       7.04       9.45       1.49
C       6.79      13.04       4.59
C       4.19      13.52       3.98
C       4.94      15.86       7.16
C       6.97      11.61       1.06
