12

O      13.46       7.27       1.41
C      12.67       8.11       1.96
C      12.39       8.10       8.49
O      12.16       9.15       1.41
C      12.39       7.93       3.35
C      12.36       7.95       4.58
C      12.36       7.99       5.92
C      12.37       8.12       9.72
C      12.11       7.95      11.12
O      12.66       6.95      11.68
O      11.29       8.77      11.65
C      12.39       8.06       7.15
