40

O      19.56      21.32       2.82
C      23.07      22.86      -2.37
C      23.75      19.92       4.10
O      19.56      24.30      -1.65
H      19.21      22.15       0.15
O      26.41      17.46       4.42
C      23.75      24.94      -3.43
H      23.66      20.22       5.14
C      25.66      18.43       4.79
O      26.41      24.30      -5.83
O      19.85      19.24       1.96
H      23.66      26.02      -3.55
C      25.66      25.01      -5.07
C      24.04      19.15       1.43
H      24.16      18.85       0.39
O      19.85      22.70      -3.24
O      25.66      18.97       5.94
C      24.04      22.18      -3.12
C      22.93      21.36      -0.38
H      24.16      21.11      -3.00
H      24.01      21.22      -0.47
O      25.66      26.28      -5.01
C      24.72      18.98       3.75
H      25.61      17.85       2.16
C      24.72      24.26      -4.17
H      25.61      22.35      -4.60
H      22.16      21.19       3.40
C      24.85      18.58       2.41
C      24.85      22.87      -4.02
H      22.16      24.79      -1.99
C      22.92      20.46       3.12
C      22.92      24.25      -2.56
C      20.91      21.08       0.90
C      20.91      22.43      -1.13
C      20.26      21.91      -0.01
C      20.06      20.48       1.99
C      20.06      23.21      -2.10
C      22.28      20.80       0.73
C      22.28      22.17      -1.32
C      23.07      20.10       1.77
