22

H       4.21       5.81       7.59
H       3.21       6.26       9.81
H       1.16       6.01      12.92
H       4.15       8.97      14.00
C       4.79       6.32       8.36
C       4.24       6.55       9.61
C       4.99       7.21      10.59
C       6.30       7.57      10.27
C       6.78       7.31       8.98
C       1.56       6.76      13.60
C       2.77       7.40      13.33
C       3.22       8.43      14.17
C       2.44       8.71      15.27
C       0.87       7.15      14.74
N       6.03       6.74       8.04
N       4.46       7.61      11.84
N       3.42       6.96      12.16
N       1.33       8.04      15.63
F       8.03       7.65       8.68
F       7.12       8.16      11.16
F      -0.33       6.63      14.96
F       2.75       9.76      16.04
