28

C       3.48      19.21       7.34
C       3.18      28.91      15.59
C       2.17      25.71      13.73
C       4.49      22.41       9.20
C       2.18      26.79      14.61
C       4.49      21.33       8.32
C       3.18      27.78      14.60
C       3.49      20.34       8.33
C       4.19      27.65      13.64
C       2.47      20.47       9.29
C       4.19      26.59      12.73
C       2.47      21.52      10.19
C       3.20      25.59      12.76
C       3.46      22.52      10.17
C       3.28      24.52      11.86
C       3.39      23.60      11.07
I       0.65      24.29      13.84
I       6.01      23.83       9.09
O       2.35      18.82       6.93
O       4.31      29.30      16.00
O       4.61      18.76       6.98
O       2.05      29.36      15.95
F       1.20      26.85      15.54
F       5.46      21.26       7.39
F       5.17      28.57      13.53
F       1.49      19.55       9.40
F       5.17      26.53      11.81
F       1.49      21.59      11.12
