13

O      14.56      12.97      10.82
S      14.04      15.96      10.59
C      13.33      13.24      10.61
C      12.77      17.13      10.54
H      10.75      14.45      10.51
H      10.60      17.11      10.48
C      12.91      14.66      10.59
C      13.08      18.57      10.50
O      12.39      12.40      10.42
O      14.31      18.89      10.35
C      11.60      15.12      10.53
O      12.11      19.38      10.63
C      11.52      16.53      10.52
