30

C       9.52      15.09      31.92
C       9.54      13.69      31.92
C       8.30      17.19      31.93
C       8.46      18.40      31.93
C       8.48      19.81      31.94
C       7.23      20.49      31.94
C       7.19      21.89      31.95
C       8.38      22.62      31.95
C       9.62      21.95      31.95
C       9.67      20.57      31.94
O       7.25      10.88      31.90
O       9.52      10.91      31.93
O       9.46      24.72      31.95
O       7.19      24.67      31.96
H       6.20      13.06      31.91
H       6.13      15.56      31.92
H      10.49      13.16      31.92
H       6.23      22.41      31.94
H      10.53      22.55      31.94
H      10.62      20.05      31.94
O      10.70      15.77      31.92
O       6.05      19.80      31.93
H      10.49      16.73      31.92
H       6.27      18.85      31.93
C       8.37      11.47      31.91
C       8.34      24.12      31.95
C       8.34      12.97      31.91
C       7.11      13.65      31.91
C       7.08      15.03      31.92
C       8.28      15.78      31.92
