22

H       8.91       9.41       0.88
H       9.46      10.82       1.84
H       8.62       9.90       3.85
H       7.31       9.03       3.03
H      10.05       8.07       2.35
H       8.09       6.18       3.26
H       8.46       4.36       0.67
H       7.02       5.22       0.11
H       7.14       4.71       1.82
C       7.41      10.84       1.21
C       8.64      10.11       1.69
C       8.37       9.29       2.97
C       9.17       7.97       3.00
C       8.39       6.42       1.23
C       7.70       5.10       0.96
C       9.73       7.69       4.39
N       8.41       6.82       2.53
O       6.45      10.07       0.85
O       7.41      12.11       1.21
O       8.90       7.09       0.31
O      10.55       8.56       4.83
O       9.35       6.63       4.99
