16

O      20.25      18.70      13.48
O      15.54      15.92       9.11
O      14.48      15.08      10.93
O      19.02      18.12      15.31
C      15.40      15.75      10.36
Cl      16.67      16.53      15.24
Cl      18.00      17.34       9.18
H      15.34      15.70      12.97
H      19.31      18.19      11.44
C      18.23      17.52      13.16
C      16.43      16.38      11.26
C      17.09      16.80      13.58
C      17.57      17.10      10.83
C      16.22      16.26      12.64
C      18.43      17.64      11.78
C      19.24      18.16      14.06
