25

N       9.54      -1.16      12.45
C       7.07      -2.66      14.43
H       6.55      -4.67      13.90
C       6.38      -3.86      14.61
H       4.94      -4.91      15.84
N       8.48      -3.17      12.39
C       5.49      -3.98      15.67
H       4.61      -2.92      17.35
N       6.89      -1.58      15.26
C       5.30      -2.88      16.51
N      12.00      -3.56       8.66
H       5.90      -0.82      16.91
C       6.01      -1.71      16.28
C      10.23      -2.72      10.69
H       9.11      -4.49      10.15
C       9.98      -3.88       9.93
H      10.68      -5.14       8.34
C      10.87      -4.25       8.93
H      13.12      -1.85       9.11
H      11.58      -1.04      10.87
C      12.21      -2.41       9.35
C       8.04      -2.41      13.40
C      11.36      -1.96      10.34
C       9.41      -2.36      11.82
N       8.65      -1.20      13.46
