46

H       3.33       9.45      11.30
H       3.32       7.28      10.13
H       0.86       8.97       7.03
H       0.86       6.28      10.09
H       3.33       2.35       8.37
H       3.32       4.45       7.08
H       0.86       4.98       6.23
H       3.33       8.43       3.68
H       3.32       8.50       6.15
H       0.17      11.96       8.81
H      -0.02      11.11       7.39
H       0.17       3.25      11.80
H      -0.02       4.90      11.77
H       0.17       5.02       2.75
H      -0.02       4.21       4.20
C       2.04       1.80      10.68
C       2.04       6.71       2.06
C       2.04      11.72      10.61
C       2.76       9.34      10.38
C       2.77       8.12       9.71
C       2.10       7.98       8.49
C       1.40       9.07       7.97
C       1.34      10.30       8.65
C       2.05      10.43       9.87
C       1.40       5.41       9.71
C       1.34       4.21      10.43
C       2.05       3.10       9.94
C       2.76       3.20       8.74
C       2.77       4.39       8.01
C       2.10       5.52       8.50
C       1.40       5.74       5.67
C       1.34       5.72       4.27
C       2.05       6.70       3.55
C       2.76       7.69       4.24
C       2.77       7.72       5.63
C       2.10       6.73       6.37
N       2.12       6.74       7.79
N       0.64      11.38       8.12
N       0.64       4.14      11.63
N       0.64       4.71       3.61
O       1.07      11.93      11.41
O       1.07       1.01      10.47
O       1.07       7.28       1.48
O       3.01      12.53      10.42
O       3.01       6.13       1.45
O       3.01       1.57      11.48
