54

C      12.84      22.73       9.31
C      12.95      25.76       5.43
C      13.58      23.66       8.60
H      13.20      21.72       9.47
C      11.66      26.30       5.35
C      13.05      24.95       8.43
H      14.56      23.42       8.19
N      15.59      27.20       7.41
C      11.80      25.30       8.93
H      11.41      26.31       8.77
N      14.95      27.02       6.20
C      11.06      24.35       9.64
H      10.08      24.59      10.04
N      13.88      25.91       7.78
C      15.35      26.38       9.78
H      16.18      27.06       9.98
N       7.75      27.70       3.65
C      14.96      26.52       8.36
H      15.65      25.34       9.99
N       9.13      27.56       3.64
C      13.91      26.25       6.43
H      14.51      26.64      10.43
N       8.26      25.79       4.64
C       8.11      20.67       7.18
H       7.20      21.32       4.75
C       8.13      22.04       6.55
O      11.46      20.92      10.79
H       7.24      23.56       3.62
C       7.60      22.20       5.26
O       9.64      22.28      10.94
H       9.07      25.29       7.12
C       7.62      23.44       4.64
O       8.69      20.57       8.33
H       9.03      23.02       8.24
C       8.17      24.54       5.31
O       7.54      19.73       6.59
H       5.22      27.28       4.32
C       8.67      24.41       6.61
H       5.70      26.16       5.62
C       8.64      23.15       7.23
H       5.40      25.55       3.98
C       5.81      26.39       4.55
H      10.43      24.39       2.80
C       7.24      26.64       4.25
H      12.73      23.43       2.94
C       9.42      26.42       4.24
H      14.36      24.34       4.58
C      10.76      25.82       4.39
H      11.33      27.08       6.03
C      11.14      24.77       3.53
C      10.82      22.02      10.58
C      12.43      24.24       3.61
C      11.58      23.07       9.84
C      13.34      24.73       4.55
