16

Cl      18.40       8.45       2.70
C      18.39       9.72       3.84
C      18.38      13.32       4.15
C      18.37       9.59       5.23
C      18.40      13.43       2.78
C      18.37      11.97       4.55
C      18.40      11.08       3.45
C      18.38       8.38       6.06
O      18.44      14.53       0.71
H      18.36      14.19       4.81
S      18.35      11.12       6.05
S      18.42      11.90       1.95
O      18.42       7.25       5.47
O      18.35       8.58       7.33
O      18.41      15.77       2.63
C      18.42      14.67       1.99
