20

C       2.89       6.30      17.46
C       4.30       6.40      17.34
S       2.16       7.86      17.55
S       5.05       4.86      17.25
S       6.49       8.08      17.24
O       4.66       2.07      17.31
O       2.39       1.97      17.42
H       1.39       4.65      17.57
H       6.84       8.37      15.16
O       2.57      10.70      17.47
C       3.51       2.62      17.37
O       4.85      10.69      17.37
C       3.73      10.11      17.43
O       6.65       8.98      15.90
O       6.91       8.89      18.33
O       7.12       6.81      16.96
C       4.76       7.74      17.32
C       2.43       4.96      17.48
C       3.70       8.64      17.43
C       3.49       4.09      17.38
