30

H      13.51       6.37       8.28
C      16.10       7.36      12.24
C      13.26       7.36      12.24
H      15.85       9.96      10.69
H      15.85      10.03       8.92
H      13.52       9.96      10.69
H      13.52      10.03       8.92
N      10.79       8.04       9.64
N      18.58       8.04       9.64
O      16.28       8.68      12.54
O      12.96       6.46      12.99
O      13.09       8.68      12.54
H      16.70       8.71      13.42
H      12.66       8.71      13.42
O      16.41       6.46      12.99
H      13.58       6.09      10.64
H      15.79       6.09      10.64
H      15.85       7.97       7.53
H      13.52       7.97       7.53
H      15.85       6.37       8.28
C      15.47       7.12      10.87
C      13.89       7.12      10.87
C      15.46       7.39       8.38
C      13.91       7.39       8.38
C      15.97       8.02       9.70
C      13.39       8.02       9.70
C      13.91       9.48       9.78
C      15.45       9.48       9.78
C      11.94       8.03       9.68
C      17.42       8.03       9.68
