32

O       5.47       5.87      11.05
O       5.18       8.12      11.01
O       5.30       7.89      -0.20
O       5.55       5.64      -0.14
H       5.24       9.10       8.77
H       5.22      10.32       6.59
H       5.39       4.84       8.91
H       5.43       4.67       2.09
H       5.44       3.45       4.27
H       5.28       8.93       1.94
O       5.23      10.54       4.04
O       5.43       3.23       6.81
H       5.22      10.38       3.08
H       5.39       3.39       7.77
C       5.32       6.99      10.45
C       5.41       6.77       0.42
C       5.28       8.16       8.23
C       5.28       8.15       6.83
C       5.25       9.36       6.07
C       5.36       5.73       8.28
C       5.36       5.67       6.89
C       5.40       4.43       6.16
C       5.40       5.61       2.63
C       5.38       5.62       4.03
C       5.41       4.41       4.79
C       5.31       8.04       2.57
C       5.30       8.10       3.97
C       5.26       9.34       4.70
C       5.32       6.96       8.95
C       5.33       6.89       6.14
C       5.37       6.81       1.91
C       5.33       6.88       4.72
