73

N       5.36       9.54       4.58
H       3.67       9.60       6.60
N       3.33       5.17       7.49
H       2.81       7.66       7.88
H       5.19       5.00       5.47
N       1.55       1.37      10.34
H       6.06       6.94       4.20
N       6.83      14.25       7.26
H       1.54       4.58       9.34
N       8.26      18.35       9.90
N       6.54       9.59      -0.92
H       0.24       2.93      10.67
H       3.01      -0.06       9.98
N       7.80       9.82      -5.86
O       5.08       3.69       7.63
H       4.40       1.44       8.51
H       4.40      11.98       4.04
O       5.13      15.76       6.97
O       7.64      11.60      -1.18
H       5.00      14.10       5.21
H       7.51      11.86       7.90
H       6.88       9.75       6.76
H       5.73      18.09       7.68
H       6.88      19.72       9.17
H       9.52      16.85      10.54
H       8.49      15.08       9.14
H       4.24       7.98       2.67
H       4.77       8.05       0.27
H       7.70      11.12       0.98
H       7.20      11.02       3.39
H       7.03       8.08      -3.08
H       7.47       7.81      -5.50
H       8.12      11.87      -6.01
H       7.79      12.31      -3.55
H       2.33       5.35       7.70
H       7.83      14.16       7.48
H       6.06       8.87      -1.46
C       4.91       8.41       5.30
C       4.01       8.60       6.36
C       3.53       7.52       7.08
C       3.94       6.21       6.76
C       4.86       6.01       5.72
C       5.34       7.10       5.00
C       3.90       4.02       7.90
C       3.06       3.13       8.75
C       1.89       3.55       9.40
C       1.17       2.65      10.17
C       2.71       0.97       9.77
C       3.48       1.81       8.97
C       5.61      10.73       5.31
C       5.07      11.96       4.90
C       5.41      13.15       5.54
C       6.31      13.11       6.62
C       6.81      11.88       7.06
C       6.46      10.70       6.42
C       6.26      15.46       7.43
C       7.02      16.44       8.26
C       6.57      17.77       8.29
C       7.22      18.68       9.10
C       8.69      17.07       9.87
C       8.10      16.10       9.08
C       5.67       9.51       3.21
C       5.00       8.66       2.31
C       5.31       8.70       0.95
C       6.27       9.59       0.45
C       6.95      10.43       1.35
C       6.66      10.38       2.71
C       7.19      10.55      -1.66
C       7.34      10.25      -3.12
C       7.24       8.97      -3.68
C       7.49       8.81      -5.04
C       7.89      11.05      -5.32
C       7.68      11.31      -3.97
