16

O      10.31      10.74      14.69
O       9.28       8.70      14.54
S      11.24       7.36      12.94
S      14.83       8.95      11.51
C      10.23       9.52      14.30
C      12.50       9.65      13.07
C      13.58       6.64      11.37
C      11.34       9.01      13.49
C      14.73       7.30      10.96
H      13.37       5.61      11.11
C      13.31       8.79      12.30
C      12.76       7.50      12.14
C      15.82       6.75      10.15
O      16.79       7.55       9.88
O      15.71       5.53       9.78
Cl      12.96      11.26      13.40
