32

H      10.62       9.57       3.19
H       6.33       9.57       3.19
O       9.61      10.96       1.47
O       7.34      10.96       1.47
H       6.33       3.06       9.95
H      10.62       3.06       9.95
H      11.60       8.29       4.80
O       7.34       1.42      11.43
H       5.36       8.29       4.80
O       9.61       1.42      11.43
H       5.36       4.62       8.60
H      11.60       4.62       8.60
O      10.85       7.89       5.28
O       6.11       7.89       5.28
C       8.48      10.60       1.92
O       6.11       5.10       8.20
O      10.85       5.10       8.20
C       8.48       1.85      11.04
C       9.69       8.35       4.71
C       7.26       8.35       4.71
C       7.26       4.55       8.68
C       9.69       4.55       8.68
C       9.69       9.22       3.62
C       7.26       9.22       3.62
C       7.26       3.49       9.59
C       9.69       3.49       9.59
C       8.48       9.65       3.08
C       8.48       2.96      10.04
C       8.48       7.88       5.28
C       8.48       5.10       8.19
C       8.48       6.96       6.34
C       8.48       6.12       7.23
