16

C       4.87       1.41       0.02
C       6.06      -0.66      -0.36
C       3.81       0.70       0.60
C       5.99       0.73      -0.46
C       3.89      -0.69       0.70
Cl       7.46      -1.43      -1.05
H       2.95       1.24       0.99
H       6.80       1.29      -0.92
H       3.07      -1.26       1.14
C       5.01      -1.39       0.22
O       3.69       3.47       0.12
O       5.91       3.50      -0.34
C       4.99      -2.88       0.31
C       4.82       2.90      -0.08
O       6.03      -3.49       0.74
O       3.91      -3.44      -0.04
