44

H       0.00       8.64       3.37
H       0.00      11.17      -3.37
H       0.00      11.17       3.37
H       0.00       8.64      -3.37
H      -2.08       2.26       0.00
H      -2.16       4.76      -0.00
H      -2.08      17.55       0.00
H      -2.16      15.05       0.00
H       2.08      17.55       0.00
H       2.16      15.05       0.00
H       2.08       2.26       0.00
H       2.16       4.76      -0.00
C       0.00       7.02       1.26
C       0.00       8.50       1.24
C       0.00       9.20       2.43
C       0.00      12.79      -1.26
C       0.00      11.31      -1.24
C       0.00      10.61      -2.43
C       0.00      12.79       1.26
C       0.00      11.31       1.24
C       0.00      10.61       2.43
C       0.00       7.02      -1.26
C       0.00       8.50      -1.24
C       0.00       9.20      -2.43
C      -0.00       4.94      -0.00
C       0.00       9.19      -0.00
C       0.00      14.87       0.00
C       0.00      10.62       0.00
C      -1.16       2.85       0.00
C      -1.20       4.24      -0.00
C      -1.16      16.96       0.00
C      -1.20      15.57       0.00
C       1.16      16.96       0.00
C       1.20      15.57       0.00
C       1.16       2.85       0.00
C       1.20       4.24      -0.00
N      -0.00       2.16       0.00
N      -0.00       6.38      -0.00
N       0.00      17.65       0.00
N       0.00      13.43       0.00
O       0.00       6.36       2.30
O       0.00      13.45      -2.30
O       0.00      13.45       2.30
O       0.00       6.36      -2.30
