24

H       2.75       4.72       6.99
H       2.61       2.31       6.99
H       6.94       2.23       6.99
H       6.90       4.66       6.99
H       1.73      -2.23       6.99
H       6.06      -2.31       6.99
H       5.93      -4.72       6.99
H       1.78      -4.66       6.99
C       3.67       4.14       6.99
C       3.60       2.75       6.99
C       4.78       1.97       6.99
C       5.97       2.72       6.99
C       5.96       4.11       6.99
C       4.84       0.48       6.99
C       3.84      -0.48       6.99
C       2.70      -2.71       6.99
C       3.90      -1.96       6.99
C       5.08      -2.75       6.99
C       5.01      -4.13       6.99
C       2.72      -4.10       6.99
N       4.82       4.82       6.99
N       3.86      -4.82       6.99
Cl       6.48      -0.10       6.99
Cl       2.19       0.10       6.99
