24

C       4.89      12.73      15.78
C       2.40      15.05      14.13
H       3.97      13.42      17.71
C       4.88      13.91      13.57
H       0.48      16.95      12.18
C       4.34      14.86      12.72
C       2.93      14.07      14.97
H       6.47      11.43      14.77
C       3.12      15.51      13.01
C       4.22      13.53      14.75
H       1.43      15.49      14.36
N       5.57      12.02      17.80
N       1.70      18.47      11.30
H       5.86      13.48      13.34
N       6.37      11.40      16.87
H       4.88      15.15      11.82
H       2.36      13.75      15.84
N       3.04      18.66      11.17
H       4.76      17.56      11.75
C       3.67      17.61      11.73
C       4.68      12.81      17.16
C       1.49      17.30      11.97
C       5.97      11.82      15.66
C       2.74      16.71      12.26
