44

C       4.70      11.49       1.99
C       3.89       9.75       4.07
C       4.97      10.65       4.24
C       5.38      11.48       3.22
H       9.55      14.34      -4.48
C       0.21       8.47       5.03
C       9.45      12.11      -2.33
H       2.37       9.10       2.68
H       3.08      10.64       0.85
H       3.55      13.24      -2.31
H       4.77      13.84      -4.40
H       7.30      12.79      -0.26
H       6.24      12.14       3.33
N       9.08      13.49      -6.37
H       5.36       8.86       6.50
N       4.61      12.41      -0.09
N       5.30      12.26       0.98
N       2.63       7.15       6.36
N       3.82       7.49       6.96
H       5.97      12.64      -6.26
N       7.95      12.97      -6.93
O       1.36       7.77       4.50
O       8.82      13.40      -2.32
H       0.38       9.55       5.02
H       0.00       8.15       6.06
H      -0.63       8.22       4.38
H       5.51      10.66       5.19
H       9.20      11.56      -3.26
H       9.14      11.51      -1.46
H      10.53      12.30      -2.29
C       3.58       8.79       5.11
C       6.96      13.04      -6.03
C       8.79      13.88      -5.11
C       7.44      13.59      -4.83
C       2.48       7.92       5.27
C       6.73      13.59      -3.55
C       4.39       8.46       6.22
C       7.43      13.35      -2.33
C       6.75      13.03      -1.17
C       5.35      12.94      -1.17
C       4.64      13.28      -2.33
C       5.33      13.61      -3.49
C       3.59      10.64       1.81
C       3.20       9.79       2.84
