34

S       4.09      -1.00      11.02
H       8.31       0.47       6.64
H       9.18      -0.26       8.84
H       4.36      -0.86       7.73
H       9.21      -0.16      11.21
H       9.68      -1.72      10.46
H       9.08      -1.67      12.15
H       6.08      -1.57      13.00
H       6.06      -3.16      14.95
H       2.10      -4.43      13.90
H       2.11      -2.87      11.92
O       6.58       0.55       4.79
O       4.49       0.45       5.59
O       7.63      -1.45      10.75
O       5.08      -1.90      10.04
O       4.77       0.22      11.35
O       2.79      -0.97      10.40
O       5.07      -4.92      16.44
O       2.97      -5.49      15.85
C       5.75       0.31       5.73
C       6.28      -0.14       7.03
C       7.64       0.01       7.36
C       8.13      -0.41       8.60
C       7.27      -1.02       9.53
C       5.91      -1.20       9.16
C       5.42      -0.74       7.96
C       8.99      -1.23      11.15
C       4.08      -2.12      12.39
C       5.21      -2.19      13.22
C       5.20      -3.07      14.29
C       4.07      -3.86      14.54
C       2.96      -3.79      13.69
C       2.96      -2.92      12.60
C       4.04      -4.82      15.69
