48

H       3.75       9.18      11.13
C       2.17      15.12      10.35
C       0.69      15.26      14.08
C      -4.22      11.87      12.18
H      -1.56      19.47      11.38
H      -5.21      18.34       9.35
N      -3.14      20.56      10.48
N      -4.30      20.20       9.83
H       2.28      13.42      11.54
N       3.20       7.63       9.79
H       3.23      15.06      10.08
H       2.03      15.93      11.09
N       1.71      13.81      10.79
H       1.61      15.41       9.44
N      -0.18      15.56      12.95
H      -1.17      10.77       9.75
N      -3.72      13.19      11.80
H      -4.28      13.61      11.05
H      -5.28      11.94      12.44
H      -0.99      16.12      13.23
H       0.90      16.19      14.63
H       1.65      14.87      13.70
H      -3.68      11.53      13.07
H       0.28      14.52      14.78
N       2.03       7.19       9.27
H      -4.09      11.10      11.39
O      -1.80      11.50       9.58
H      -0.01       7.75       9.49
H      -0.64      14.24       8.98
H      -1.40      12.71      13.61
C       1.03       7.94       9.76
C       1.56       8.93      10.62
C       0.33      13.70      11.08
C      -0.79      13.90      10.01
C      -2.86      16.97      10.66
C       0.88      10.04      11.17
C      -0.58      14.46      12.16
C      -1.69      14.64      11.06
C      -1.22      13.06      12.59
C      -0.32      12.33      11.54
C      -2.35      13.27      11.51
C      -1.43      12.53      10.43
C      -2.36      15.86      10.84
C       0.35      11.08      11.53
C      -2.51      19.44      10.87
C      -3.25      18.30      10.47
C      -4.37      18.85       9.82
C       2.95       8.67      10.61
