18

N      -2.44       1.19      10.14
N      -0.92       2.77      11.82
N       1.39       1.26      11.47
C      -2.75       1.24      11.44
C      -1.84       1.83      12.47
C       0.23       3.12      12.66
H      -2.43       2.26      13.29
H      -1.24       1.01      12.90
H      -0.02       3.27      13.72
H       0.66       4.06      12.27
H      -1.42       3.62      11.54
C       1.27       2.05      12.55
N       2.45       0.49      11.70
N      -3.47       0.54       9.57
N      -4.36       0.21      10.47
N      -3.94       0.65      11.66
N       2.94       0.81      12.89
N       2.22       1.78      13.46
