22

N       5.91       3.71       5.57
H       4.65       4.21       4.00
N      -0.93       2.97      11.40
H       0.32       2.47      12.97
N       2.41       3.44       7.86
N       2.56       3.24       9.11
H       7.02       3.19       7.23
H      -2.04       3.49       9.74
H       5.00       3.00       8.76
H      -0.03       3.68       8.21
H       2.55       4.02       5.35
H       2.42       2.66      11.62
C       4.69       3.94       5.05
C       0.28       2.74      11.92
C       6.00       3.37       6.88
C      -1.03       3.31      10.09
C       3.63       3.50       7.15
C       1.34       3.18       9.82
C       4.90       3.27       7.71
C       0.07       3.42       9.26
C       3.53       3.83       5.80
C       1.45       2.85      11.17
