22

H       6.21       2.14      10.53
H       6.25      -2.82      10.21
H      10.11      -1.42       7.75
H      10.08       1.07       7.88
C       8.26       2.66       8.89
C       8.30      -3.14       8.63
C       8.25       1.17       8.98
C       7.22       0.43       9.65
C       9.29       0.49       8.35
C       6.22       1.05      10.44
C       5.28       0.31      11.12
C       8.27      -1.66       8.81
C       9.30      -0.91       8.27
C       7.23      -1.01       9.56
C       6.25      -1.74      10.27
C       5.29      -1.10      11.04
Br       4.00       1.23      12.18
Br       4.03      -2.17      11.97
O       9.40       3.22       8.91
O       9.44      -3.70       8.67
O       7.19      -3.73       8.43
O       7.14       3.25       8.75
