18

C       9.15       3.94      19.04
C       5.80       5.51      21.71
C       7.11       4.13      20.44
C       7.85       5.33      20.39
O      10.38       6.48      18.19
O       9.96       2.23      17.67
O      11.38       3.91      18.27
C      10.25       3.33      18.26
S       7.87       2.88      19.52
S       7.11       6.58      21.29
C       4.70       6.04      22.53
H       5.20       3.45      21.39
O       4.79       7.26      22.89
O       3.75       5.23      22.79
N       9.80       6.40      19.28
O       9.79       7.28      20.16
C       8.99       5.22      19.57
C       5.93       4.23      21.21
