34

O      13.72      -3.48       8.38
O      14.98      -4.34      10.04
H      14.70      -2.99      12.04
O      11.30       0.44      13.94
O       9.90      -1.34      14.00
H      14.97      -3.27      14.39
H      15.77      -1.84      13.71
H      15.37      -1.89      15.44
H      13.73      -0.44      14.24
H      12.95      -1.83      14.96
H      10.90      -0.67       8.28
H      12.40      -1.45       7.74
H      10.86      -1.88       6.98
H      11.51      -3.69       8.54
H      10.06      -2.88       9.13
H       8.72      -2.72      12.36
H       7.61      -2.00      11.17
H       8.76      -3.26      10.67
H       9.46      -0.41      11.63
H       9.58      -0.96       9.98
C      10.92      -0.73      13.56
C      13.98      -3.62       9.62
C      13.03      -1.87      12.82
C      13.70      -2.62      11.85
C      13.12      -2.91      10.60
C      11.81      -2.47      10.29
C      11.10      -1.75      11.28
C      11.72      -1.45      12.51
C      13.65      -1.54      14.16
C      15.01      -2.17      14.44
C      11.14      -2.75       8.96
C      11.34      -1.62       7.93
C       9.68      -1.30      11.02
C       8.63      -2.38      11.32
