34

H       3.37       3.41       9.55
H       3.07       8.48       4.45
H       6.48       6.43       8.33
H      -0.08       7.24       7.46
H       7.88       8.78       5.23
H      -1.46       4.09       9.74
H       7.18       4.17       7.47
H      -0.75       6.41       5.18
C       0.69       4.11       9.49
C       5.74       8.43       5.17
C      -0.59       4.56       9.29
C       7.01       8.29       5.68
C       0.18       6.29       7.93
C       6.23       6.91       7.39
C       1.50       5.80       7.93
C       4.93       6.88       6.86
C       1.79       4.71       8.81
C       4.64       7.74       5.76
C       2.54       6.38       7.12
C       3.89       6.07       7.44
C       4.16       4.94       8.29
C       2.27       7.24       5.99
C       3.14       4.28       8.94
C       3.29       7.86       5.32
C       5.54       4.37       8.48
C       0.88       7.44       5.43
Br       0.95       2.67      10.70
Br       5.49       9.56       3.66
N      -0.82       5.67       8.53
N       7.24       7.56       6.80
O       6.00       4.11       9.58
O       6.18       4.18       7.31
O       0.42       8.55       5.22
O       0.25       6.27       5.19
