34

F       4.03       9.46       8.16
H       1.13      14.95       6.31
H      -0.12      19.71       6.82
H       0.53       6.55       8.36
H       1.19      10.89       4.67
H       1.26      12.49       3.88
H       2.73      11.50       4.03
H       2.74      13.34       5.75
H       2.70      11.75       6.51
H      -2.44      13.88       8.48
H      -1.79      11.48       8.34
H      -3.62      18.41       9.02
C       3.20       8.42       8.33
C      -2.86      18.95       8.46
C       1.82       8.37       8.05
C      -1.66      18.47       7.90
C      -1.16      12.25       7.89
C       0.05      11.86       7.27
C       0.86      12.85       6.64
C       0.49      14.18       6.75
C      -0.67      14.58       7.44
C      -1.52      13.59       7.97
C       0.52      10.54       7.40
C      -0.98      15.95       7.62
C      -1.24      17.13       7.80
C       1.04       9.46       7.64
C      -1.07      19.62       7.34
C       2.11      12.45       5.90
C       1.81      11.80       4.54
C       1.50       7.04       8.39
N      -1.88      20.68       7.52
N       2.60       6.39       8.85
N       3.66       7.27       8.81
N      -2.98      20.27       8.20
