20

H       3.13       5.41       3.83
H       7.16       2.78       1.48
H       8.12       3.86       2.52
H       8.03       2.13       4.38
H       7.08       1.06       3.31
C       4.89       1.68       6.12
C       4.98       5.70       1.85
C       4.98       4.70       2.94
C       4.91       2.72       5.06
C       5.98       3.74       3.09
C       3.92       3.72       4.90
C       5.93       2.78       4.11
C       3.94       4.67       3.89
C       7.26       3.18       2.50
C       7.21       2.10       3.65
O       3.79       1.41       6.68
O       6.02       1.14       6.38
O       3.87       6.26       1.58
O       6.08       5.90       1.23
F       2.89       3.80       5.79
