24

N       3.42       3.14      20.27
C       9.24       2.70      22.77
O       9.92       3.36      21.93
C       7.76       2.66      22.53
O       9.66       2.06      23.78
C       7.22       3.37      21.45
O      -1.18       3.03      20.92
C       5.06       2.62      21.93
O      -0.52       2.87      18.74
H       7.86       3.96      20.79
C       5.53       1.90      23.03
H       4.85       1.29      23.62
C       6.89       1.91      23.33
C       3.65       2.62      21.49
H       7.30       1.34      24.16
C       2.60       2.13      22.28
H       2.79       1.74      23.28
C       2.18       3.16      19.77
H       2.06       3.58      18.78
H       0.45       1.88      22.40
C       1.08       2.71      20.51
C       1.30       2.20      21.79
C      -0.33       2.87      20.00
N       5.91       3.35      21.16
