30

C       8.84       8.60      25.36
H       8.94       4.22      29.30
C       8.63       9.62      26.36
H       9.08       9.92      23.66
Br       8.26      10.67      28.99
Br       8.55      11.43      25.78
H       7.98       8.30      30.21
H       9.35       5.73      22.76
Cl       9.41       2.93      27.15
Cl       9.16       3.57      24.10
C       8.03       5.74      31.20
C       9.71       8.06      21.70
O       8.58       4.69      31.64
C       8.48       9.31      27.69
C       8.78       6.92      27.17
O      10.05       7.02      21.08
O       7.06       6.38      31.78
C       8.88       7.24      25.80
C       9.14       4.53      26.61
O       9.82       9.26      21.23
C       9.10       4.82      25.28
C       8.81       5.24      28.95
C       9.19       6.51      23.50
C       9.24       7.85      23.09
C       8.42       6.22      29.86
C       8.94       5.56      27.60
C       9.03       6.19      24.84
C       8.28       7.56      29.47
C       9.04       8.89      24.00
C       8.52       7.94      28.15
