18

N       9.17      15.05       6.71
C       9.66      14.20       4.74
H       6.30       9.91       3.74
C       7.55      11.04       0.93
C       8.36      13.76       5.03
N       6.63       9.21       1.78
C       7.28      11.34       2.27
C       8.11      14.33       6.29
H      10.29      13.96       3.88
C       6.67      10.14       2.74
H       8.01      11.66       0.17
N       7.18       9.76       0.64
C       7.76      12.50       2.98
H       8.46      13.12       2.42
C       7.55      12.81       4.29
H       6.80      12.25       4.86
N      10.14      14.96       5.74
H       7.23      14.24       6.93
