22

C      14.51      21.70       7.27
C      20.26      14.51       2.49
C      15.63      20.87       7.55
C      19.11      15.21       2.07
H      16.86      19.13       3.23
H      18.78      18.25       5.49
H      16.29      20.24       9.61
H      17.55      14.41       0.65
H      14.15      22.03       6.30
N      14.57      21.48       9.45
N      19.18      13.14       1.14
N      13.90      22.05       8.40
H      21.05      14.85       3.15
N      20.29      13.28       1.94
C      16.51      20.26       6.65
C      18.67      16.46       2.51
C      17.96      18.82       5.02
C      17.66      18.56       3.71
C      17.23      19.66       5.86
C      18.25      17.50       3.01
C      15.61      20.78       8.96
C      18.47      14.29       1.20
