24

H       9.43       5.79      10.67
H      11.72       6.80      10.52
H      12.24       5.31       9.72
S      10.39       3.73      10.97
H       9.17       3.50      13.57
N      10.28       5.25      10.42
H      10.15       3.66      15.87
H      14.04       4.33      14.19
H      13.08       4.21      11.90
O       9.87       6.51       8.03
O      12.01       7.13       7.85
O       9.04       3.23      11.09
O      11.37       3.04      10.15
O      11.95       4.11      17.54
O      14.02       4.00      16.65
C      11.04       6.59       8.49
C      11.38       5.99       9.85
C      11.07       3.84      12.61
C      10.23       3.70      13.72
C      10.78       3.79      15.00
C      12.15       4.01      15.17
C      12.98       4.16      14.05
C      12.44       4.09      12.77
C      12.76       4.04      16.54
