10

O      17.35       9.25       3.05
O      19.65       9.25       3.05
C      18.50       9.25       7.62
C      18.50       9.25       5.05
C      18.50       9.25       8.84
C      18.50       9.25       3.61
C      18.50       9.25      10.29
C      18.50       9.25       6.27
O      17.35       9.25      10.84
O      19.65       9.25      10.84
