52

H       0.85       6.98      10.80
H      -0.86       9.57       7.02
H       0.48      10.54      11.82
H       0.50       8.87      12.48
H      -0.74      10.05      13.04
H      -0.51       7.67       5.35
H      -0.49       6.00       6.01
H       0.72       6.50       4.78
H       1.33       4.93       8.71
H       0.86       2.51       8.49
H      -1.49       1.69       8.36
H      -3.37       3.33       8.46
H      -2.91       5.75       8.67
H      -1.31      11.64       9.11
H      -0.80      14.06       9.33
H       1.56      14.84       9.45
H       3.42      13.17       9.35
H       2.91      10.75       9.15
C       5.46       8.23       8.98
C      -5.46       8.29       8.85
C      -0.50       8.80      10.05
C       0.49       7.75       7.77
C       0.46       7.56       9.97
C      -0.47       8.98       7.86
C       4.01       8.22       8.98
C      -4.01       8.30       8.84
C       0.42       9.60       9.01
C      -0.42       6.95       8.82
C       1.38       8.33       8.94
C      -1.38       8.21       8.88
C       2.79       8.29       8.96
C      -2.80       8.25       8.86
C      -0.15       9.72      12.18
C       0.14       6.83       5.64
C      -0.76       5.51       8.71
C       0.30       4.58       8.66
C       0.03       3.22       8.53
C      -1.28       2.76       8.46
C      -2.34       3.68       8.51
C      -2.08       5.05       8.63
C       0.77      11.03       9.11
C      -0.27      11.98       9.16
C       0.01      13.34       9.29
C       1.34      13.77       9.36
C       2.38      12.84       9.31
C       2.10      11.48       9.19
O       6.01       9.37       8.96
O      -6.00       7.13       8.83
O       6.04       7.09       8.99
O      -6.04       9.42       8.87
O      -1.09       9.31      11.18
O       1.08       7.24       6.64
