15

C      30.06      24.24      20.27
H      29.81      23.69      18.20
C      29.33      23.85      19.16
H      31.14      24.36      20.21
C      28.00      24.29      21.52
H      26.28      23.70      20.36
C      27.35      23.88      20.36
H      27.45      24.47      22.43
C      30.13      24.89      22.68
C      29.40      24.47      21.49
N      29.54      25.28      23.83
N      27.99      23.66      19.20
N      30.55      25.57      24.63
N      31.71      25.37      23.99
N      31.47      24.95      22.76
