26

O      17.38      18.54      18.08
O      19.67      18.54      18.07
H      19.58      16.47      23.28
H      19.89      20.42      23.28
O      18.52      17.40      30.12
O      18.52      19.68      30.12
H      17.26      16.62      24.92
H      17.57      20.63      24.92
H      16.25      18.72      23.28
C      18.53      18.54      18.65
C      17.83      17.48      24.54
C      18.00      19.70      24.54
O      22.04      18.27      24.05
O      21.47      18.31      26.18
C      19.10      17.38      23.65
C      19.28      19.60      23.65
C      18.54      18.54      20.09
C      18.50      18.54      28.11
C      17.27      18.64      23.65
C      18.55      18.54      22.72
C      18.54      18.54      25.48
C      19.81      18.44      24.55
C      18.55      18.54      21.30
C      18.54      18.54      26.90
C      18.51      18.54      29.55
N      21.22      18.33      24.97
