42

O       6.42       9.60       7.78
H       8.62       9.54       8.22
O       5.49      11.57       7.66
H       9.89       8.05       6.18
H       7.05      10.59       4.10
O       5.87      12.39       4.83
O       7.12      13.49       6.27
H       6.51       9.34       5.22
H      10.79      11.45       6.06
O       8.81      13.06       4.15
O      10.29      13.74       5.64
H      10.24       9.84       7.60
O      10.59      11.56       2.71
O       8.63      10.62       2.39
C       8.46       6.56       1.85
O      11.56       9.33       5.58
O      11.39       9.04       3.41
C       8.96      13.63      10.03
C       7.33      11.10       6.17
C       9.80      11.45       5.60
O       8.19       7.19       7.89
O       7.08       7.24       5.99
C       9.73      10.34       4.52
C       8.47       7.46       2.97
C       8.77      11.18       6.76
C       7.29      10.08       5.04
C       8.61       9.30       4.89
C       8.98       8.67       6.27
C       9.19       9.77       7.31
C       8.50       8.29       3.86
C       8.90      12.11       7.86
C       8.95      12.77       8.87
N       6.32      10.73       7.32
N       6.73      12.47       5.70
N       9.63      12.88       5.06
N       9.61      10.90       3.06
N      11.04       9.53       4.47
N       7.97       7.62       6.75
O       7.81      13.95      10.48
O       7.31       6.23       1.41
O      10.11      13.96      10.48
O       9.61       6.22       1.41
