29

N       1.31       6.09      16.38
N       5.52      -2.67      17.56
H       3.29       6.69      16.17
H       4.20       5.10      17.82
H       0.15       3.72      18.47
H      -0.61       5.39      16.82
H       1.99       2.90      19.91
H       3.62       3.57      19.74
H       2.35       1.52      17.85
H       3.97       2.19      17.68
H       2.98       0.52      20.06
H       4.54       1.31      20.01
H       3.48      -0.12      16.74
H       4.57      -2.15      15.81
H       6.41      -3.03      19.39
H       5.49      -0.95      20.47
C       2.62       6.00      16.68
C       3.13       5.09      17.59
C       2.25       4.21      18.24
C       0.89       4.33      17.95
C       0.45       5.27      17.02
C       2.77       3.17      19.18
C       3.21       1.91      18.42
C       3.77       0.85      19.36
C       4.38      -0.36      18.71
C       4.13      -0.72      17.38
C       4.73      -1.86      16.85
C       5.77      -2.33      18.84
C       5.24      -1.19      19.44
