34

C       7.63       6.82       0.38
C       6.51       4.86       0.49
C       8.77       4.87       0.32
C       7.66      10.88       0.35
C       8.81      12.83       0.43
C       6.55      12.85       0.25
C      12.09       2.50       0.19
C       3.20       2.46       0.53
C      12.12      15.21       0.54
C       3.24      15.24       0.20
C       4.35      14.31       0.14
C       5.33      13.60       0.17
C      10.03      13.56       0.51
C      11.02      14.26       0.55
C       5.29       4.11       0.56
C       4.31       3.40       0.59
C      10.99       3.43       0.20
C       9.99       4.13       0.25
C       7.63       8.24       0.37
C       7.64       9.46       0.36
N       6.43       6.20       0.48
N       7.64       4.13       0.42
N       8.83       6.21       0.30
N       8.87      11.48       0.44
N       7.69      13.57       0.33
N       6.47      11.51       0.24
O      13.28       2.96       0.16
O      11.75       1.27       0.23
O       2.02       2.91       0.67
O       3.54       1.25       0.31
O      13.31      14.74       0.57
O      11.78      16.43       0.49
O       2.06      14.79       0.05
O       3.57      16.44       0.45
