28

O      -2.51      26.24       8.38
H      -1.50      18.08       4.14
H      -5.73      18.50       3.38
H      -1.50      21.95       6.27
H      -5.73      22.37       5.50
O      -4.72      26.45       7.98
O      -4.72      14.21       1.27
O      -2.51      14.00       1.66
C      -3.61      25.83       7.90
C      -3.61      14.62       1.75
C      -3.61      15.94       2.47
C      -2.43      16.49       3.05
C      -2.43      17.71       3.72
C      -3.61      18.45       3.85
C      -4.80      17.94       3.29
C      -4.80      16.72       2.62
C      -3.61      19.69       4.53
C      -3.61      20.76       5.12
C      -3.61      22.00       5.80
C      -2.43      22.51       6.35
C      -2.43      23.73       7.02
C      -3.61      24.51       7.18
C      -4.80      23.96       6.60
C      -4.80      22.74       5.93
Cl      -0.87      15.73       3.00
Cl      -6.35      16.28       2.01
Cl      -0.87      24.17       7.63
Cl      -6.35      24.72       6.65
