16

C      15.37      10.03      28.43
C      16.77      10.20      28.45
H      13.92       8.54      29.26
Cl      18.85      11.76      27.62
O      17.21      13.85      26.16
O      14.95      13.62      25.95
O      17.14       6.52      30.84
C      16.10      13.26      26.37
O      14.86       6.46      30.71
S      14.60      11.28      27.53
S      17.57       8.95      29.33
C      16.00       6.97      30.47
C      17.20      11.35      27.74
C      14.95       8.88      29.13
C      16.13      12.04      27.19
C      16.03       8.21      29.67
