30

C      -9.36       8.82       6.05
C      -9.03       9.98       5.13
C     -10.10      10.20       4.03
C      -9.04      11.79       2.45
C     -10.06      12.89       2.77
C      -9.79      14.15       1.96
C      -8.89       9.38       2.07
C      -9.37       8.06       2.21
C      -8.75       7.00       1.54
C      -7.64       7.21       0.72
C      -7.14       8.51       0.60
C      -7.75       9.58       1.26
N      -9.55      10.45       2.70
O      -9.71       7.74       5.49
O      -9.25       9.01       7.31
O      -9.80      15.26       2.59
O      -9.59      13.99       0.71
H      -8.83      10.88       5.72
H      -8.08       9.69       4.63
H     -10.74       9.32       3.98
H     -10.74      11.04       4.31
H      -8.81      11.86       1.39
H      -8.09      11.99       3.00
H     -11.05      12.54       2.46
H     -10.10      13.16       3.83
H     -10.23       7.85       2.84
H      -9.16       5.99       1.67
H      -7.17       6.38       0.20
H      -6.27       8.70      -0.02
H      -7.31      10.56       1.16
