23

C      26.00      22.04      19.61
N      24.10      15.92      20.81
C      26.00      22.04      22.02
H      24.09      16.02      18.75
O      27.14      24.57      19.67
C      26.29      22.69      20.81
H      24.09      16.02      22.87
C      24.22      16.60      19.66
O      27.14      24.57      21.95
C      26.91      24.06      20.81
H      24.64      18.42      18.65
C      24.22      16.60      21.97
H      24.64      18.42      22.98
C      24.53      17.95      19.62
H      25.27      20.28      18.65
C      24.53      17.95      22.01
H      25.27      20.28      22.98
C      24.73      18.67      20.81
H      26.22      22.55      18.67
C      25.20      20.08      20.81
H      26.22      22.55      22.96
C      25.46      20.76      19.61
C      25.46      20.76      22.02
