21

H       9.20      -4.29       9.17
H      10.95      -5.35      10.62
H      12.71      -3.87      11.68
H      12.67      -1.42      11.18
H      11.46       6.24      10.81
C       9.99      -3.70       9.64
C      10.97      -4.27      10.44
C      11.95      -3.46      11.02
C      11.92      -2.09      10.76
C      10.90      -1.58       9.96
C      10.69      -0.17       9.66
C      10.64       1.91       9.57
C      10.72       3.34       9.73
C      11.07       5.35      10.32
N       9.95      -2.38       9.41
N       9.61       0.15       8.90
N       9.57       1.49       8.84
N      11.37       0.92      10.09
N       9.78       4.08       9.14
N      10.01       5.37       9.52
N      11.56       4.10      10.47
