22

H      18.32      16.22      22.06
H      18.33      17.93      20.19
H      17.74      20.83      17.50
H      20.69      18.24      15.65
F      20.87      13.45      19.87
F      21.03      15.16      17.79
F      17.81      22.51      15.50
F      20.89      19.81      13.56
C      18.87      16.06      21.13
C      18.88      16.99      20.11
C      19.62      16.71      18.94
C      20.31      15.50      18.86
C      20.23      14.62      19.95
C      18.42      20.58      16.69
C      19.21      19.43      16.72
C      20.07      19.13      15.66
C      20.09      20.04      14.61
C      18.54      21.40      15.58
N      19.54      14.89      21.04
N      19.74      17.55      17.81
N      19.05      18.61      17.87
N      19.36      21.16      14.55
