18

C      25.60      17.85      12.05
C      28.76      16.09      12.33
N      24.71      18.43      11.19
C      25.49      17.84      13.45
H      24.68      18.11      10.23
H      23.83      18.72      11.62
O      29.90      15.71       8.88
O      30.95      15.00      10.79
C      28.89      16.10      10.95
O      24.48      18.24      15.51
C      27.57      16.72      12.73
C      26.80      17.20      11.65
O      23.42      18.92      13.60
C      24.40      18.37      14.24
S      26.83      17.06      14.25
S      27.56      16.87      10.14
H      29.51      15.65      12.98
C      30.00      15.56      10.15
