32

H       2.84       5.53      28.14
H       7.16       5.53      28.13
H       2.82       5.53      18.76
H       7.13       5.53      18.75
H       7.24       5.53      24.58
H       2.75       5.53      24.60
H       7.23       5.53      22.30
H       2.74       5.54      22.31
C       4.97       5.52      17.12
C       5.01       5.52      29.77
C       5.00       5.53      28.27
C       3.78       5.53      27.59
C       3.78       5.53      26.20
C       4.99       5.54      25.47
C       6.22       5.53      26.19
C       6.22       5.53      27.58
C       4.99       5.54      24.06
C       4.99       5.54      22.83
C       4.98       5.54      21.42
C       3.76       5.53      20.70
C       3.76       5.53      19.31
C       4.97       5.53      18.62
C       6.20       5.53      19.30
C       6.20       5.53      20.69
O       3.83       5.52      16.54
O       6.10       5.52      16.53
O       6.14       5.52      30.35
O       3.87       5.52      30.36
O       7.42       5.53      25.54
O       2.57       5.54      25.56
O       7.40       5.53      21.33
O       2.56       5.54      21.35
