16

O      24.54      10.54      14.42
C      21.87       7.57      11.32
O      25.72       8.60      14.35
C      22.61       9.47      12.61
C      23.73       8.76      13.08
C      22.99       6.84      11.77
C      21.69       8.89      11.75
C      23.89       7.44      12.64
H      23.12       5.82      11.43
H      20.83       9.47      11.41
H      24.76       6.89      13.00
C      24.74       9.35      14.03
O      21.09       5.74      10.05
O      19.90       7.68      10.02
C      20.88       6.95      10.39
F      22.37      10.75      12.98
