30

H       5.33      10.16       8.32
H       5.21      10.55       6.01
H       3.90      11.70       6.27
H       1.25       8.80       8.29
H       1.61      10.50       8.58
H       1.12       9.21       5.99
H       3.14       7.16       7.91
H       3.01       7.55       5.61
H       1.49      10.91       6.27
C       3.13      10.74       1.88
O       2.21       7.75      12.71
O       4.26      10.99       1.36
O       1.98      10.98       1.35
O       4.47       7.90      12.95
H       4.68       8.10       5.60
H       4.82       7.71       7.91
H       4.02      11.31       8.58
C       3.80       7.99       7.61
C       4.31      10.42       8.01
C       4.23      10.67       6.48
C       3.12      10.20       3.21
C       3.37       9.25       8.40
C       3.71       8.24       6.09
C       3.23       9.69       5.82
C       1.84       9.89       6.48
C       1.92       9.62       8.00
C       3.16       9.95       4.40
C       3.44       8.96       9.82
C       3.36       8.08      12.31
C       3.45       8.65      10.99
