50

H       5.22       7.82       7.59
H       9.48       8.31       7.64
H       9.51       8.36       5.12
H       6.79      11.40      -1.34
H       8.09       4.81      -1.24
H       8.04       4.85       1.30
H       5.62       6.83      -5.04
H       9.11       9.13      -7.71
H       9.17       9.25      -5.21
C       6.99      10.55       0.65
C       6.97      10.50      -0.76
C       7.20       9.32      -1.44
C       7.44       8.12      -0.72
C       7.68       6.91      -1.40
C       7.90       5.73      -0.69
C       7.88       5.75       0.71
C       7.17       9.32      -2.92
C       7.70       6.87      -2.88
C       6.37       7.35      -5.63
C       7.34       7.99      -9.29
C       6.33       7.32      -7.03
C       7.31       7.97      -7.79
C       8.34       8.65      -7.11
C       8.38       8.70      -5.72
C       7.39       8.05      -4.99
C       6.17       7.97       5.64
C       6.15       7.94       7.03
C       7.35       8.06       7.75
C       8.56       8.22       7.06
C       8.57       8.24       5.67
C       7.38       8.12       4.96
C       7.33       8.03       9.25
C       7.63       6.90       2.88
C       7.24       9.38       2.89
C       7.21       9.39       1.40
C       7.43       8.16       0.71
C       7.65       6.94       1.41
I       6.64      12.46       1.44
I       4.78       6.18      -7.90
I       4.36       7.80       4.58
N       7.42       8.13       3.52
N       7.42       8.08      -3.55
O       6.25       8.25      -9.89
O       8.47       7.78      -9.83
O       6.20       7.81       9.81
O       8.43       8.23       9.84
O       7.78       5.87       3.53
O       7.11      10.39       3.58
O       6.93      10.33      -3.58
O       7.95       5.84      -3.51
