20

S      12.86       7.64      14.24
S      13.03       8.46      10.16
N      12.87       5.22      11.01
N      12.58      10.87      13.35
C      12.98       4.90      14.28
O      13.43       3.83      13.77
O      12.60       5.09      15.49
C      12.97      11.20      10.13
O      13.31      12.29      10.69
O      12.72      11.01       8.89
C      12.96       6.26      12.03
C      12.82       9.84      12.36
C      12.91       6.11      13.42
C      12.90       9.99      10.97
C      12.91       8.48      12.75
C      12.99       7.62      11.65
O      13.31       5.55       9.89
O      12.32       4.15      11.28
O      13.03      10.62      14.49
O      11.93      11.87      13.04
