39

H       7.27       7.44      21.62
C       7.78       6.84      19.07
C      12.44       4.73      18.98
H       7.42       4.72      23.05
C       7.74       6.48      21.87
H      11.00       6.08      17.04
C       7.08       5.71      22.76
H       8.25       4.71      17.19
C       5.83       6.19      23.38
C      10.11       5.71      17.56
C       9.16       5.16      16.78
C       9.36       4.99      15.32
O      13.31       1.39      23.27
O      14.46       3.35      23.17
O       5.38       7.33      23.01
O       5.27       5.43      24.24
H      11.57       2.52      21.78
O       8.55       4.20      14.73
H      13.15       5.13      22.18
C      13.46       2.60      22.90
O      10.34       5.60      14.78
H       9.49       6.28      23.82
C      12.37       3.19      22.09
C      10.13       5.51      23.36
C      12.32       4.51      21.82
H       9.78       4.53      23.74
C      11.19       5.14      21.11
H      11.16       5.63      23.72
C      11.22       5.24      19.71
C      10.08       5.58      21.86
H       7.50       7.79      19.56
C       8.96       6.10      21.16
H       7.98       7.04      18.01
C       8.97       6.22      19.75
H       6.89       6.19      19.13
C      10.09       5.76      19.03
H      12.43       4.98      17.92
H      13.35       5.14      19.43
H      12.51       3.64      19.07
