17

H      23.74      12.25      22.26
C      19.95      14.37      20.20
O      25.33      11.60      18.90
O      24.22      12.27      17.02
C      23.27      12.67      19.11
S      21.92      13.43      18.30
S      21.16      13.61      22.40
C      24.35      12.14      18.29
O      24.05      12.14      21.34
C      21.15      13.75      19.81
H      19.20      14.80      19.55
C      23.13      12.67      20.50
O      17.76      15.46      21.74
C      18.71      14.91      22.38
C      19.82      14.36      21.58
O      18.82      14.78      23.65
C      21.92      13.29      20.89
