16

O      18.94      18.01      15.24
C      15.35      15.71      10.39
O      15.56      15.85       9.14
O      20.20      18.67      13.46
H      16.96      16.72      14.65
H      17.57      17.09       9.73
O      14.37      15.09      10.92
C      18.19      17.48      13.06
C      17.08      16.80      13.57
C      17.45      17.02      10.81
C      16.16      16.22      12.71
C      18.37      17.59      11.68
H      19.24      18.13      11.30
H      15.29      15.68      13.09
C      16.34      16.33      11.32
C      19.19      18.10      14.00
