30

C      13.80       8.32       1.83
H      11.97       5.70       5.60
H      11.60       5.52       7.90
H      14.55       7.74       8.50
H      14.04       6.07       8.27
H      14.39       6.31       5.97
H      14.84       8.00       6.20
H      11.12       9.23       8.18
H      12.82       9.62       8.40
H      11.36       9.38       5.85
H      10.40       6.82       7.82
H      10.73       6.95       5.51
H      13.05       9.83       6.07
O      10.82       7.82      12.85
O      11.93       5.84      12.81
O      13.52       9.47       1.34
O      14.59       7.46       1.31
C      11.57       6.95      12.29
C      11.43       6.55       7.56
C      13.85       7.11       7.94
C      14.06       7.26       6.42
C      13.25       8.01       3.12
C      12.40       7.49       8.32
C      11.65       6.66       6.02
C      12.75       7.71       5.73
C      12.30       9.07       6.33
C      12.13       8.95       7.87
C      12.99       7.86       4.30
C      12.19       7.35       9.75
C      12.00       7.22      10.95
