32

H       3.41      16.71      20.01
H       3.65      18.82      21.31
H       1.24      20.84      18.36
H       1.24      22.62      23.46
H       3.41      26.75      21.81
H       3.65      24.64      20.51
H       0.48      17.84      16.51
H       0.14      19.52      16.73
H       0.48      25.61      25.31
H       0.14      23.94      25.09
C       2.05      27.21      24.01
C       2.05      16.25      17.80
C       2.16      17.55      18.49
C       2.92      17.62      19.67
C       3.06      18.79      20.39
C       2.45      19.97      19.90
C       1.72      19.93      18.71
C       1.52      18.73      18.00
C       2.55      21.20      20.61
C       2.55      22.26      21.21
C       2.45      23.49      21.91
C       1.72      23.53      23.10
C       1.52      24.73      23.81
C       2.15      25.91      23.33
C       2.92      25.84      22.15
C       3.06      24.67      21.42
N       0.80      18.75      16.84
N       0.79      24.71      24.98
O       1.07      27.40      24.83
O       2.94      28.10      23.77
O       1.07      16.06      16.99
O       2.94      15.36      18.05
