44

C      13.62       4.10      16.65
C      11.25       4.01      16.14
C      14.89       4.90      16.76
C       5.49       5.29      16.21
C       9.82       0.57      16.73
N       8.78       2.72      16.48
C      11.18       2.68      16.61
H      10.73      -0.03      16.78
C       9.23      -3.64      17.73
C       7.42       0.74      16.61
C       7.56       2.13      16.49
H       9.92      -4.24      18.33
C       7.39      -3.62      16.33
H       6.44       0.28      16.64
N       8.26      -4.31      17.08
C       9.36      -2.26      17.65
H       6.64      -4.21      15.81
O      15.87       4.30      17.35
C       3.98       3.41      16.38
H      10.15      -1.76      18.21
O       3.20       6.93      15.80
C       6.58       4.42      16.31
H       2.96       3.03      16.42
O       1.83       5.19      16.09
C       9.89       1.97      16.60
H       7.60       4.80      16.30
O      14.90       6.08      16.33
C       8.57      -0.05      16.73
H      14.46       2.33      17.52
C      13.56       2.78      17.12
H       4.88       1.48      16.56
C       3.00       5.67      16.06
H       6.73      -1.73      15.56
C       8.46      -1.52      16.87
H      12.33       1.06      17.48
C       4.19       4.79      16.24
H      12.51       5.73      15.80
C       6.39       3.03      16.41
H      10.33       4.47      15.78
C       5.07       2.54      16.45
H       5.65       6.36      16.12
C       7.45      -2.24      16.21
C      12.36       2.08      17.09
C      12.45       4.70      16.16
