40

O      10.41      15.79       7.31
C      13.92      14.25      12.49
C      14.60      17.19       6.03
O      10.41      12.81      11.77
H      10.06      14.96       9.98
C      14.60      12.17      13.56
O      17.26      19.65       5.70
H      14.51      16.88       4.99
O      17.26      12.81      15.95
C      16.51      18.68       5.33
O      10.70      17.87       8.17
C      16.51      12.10      15.20
H      14.51      11.09      13.67
C      14.90      17.96       8.69
O      10.70      14.40      13.36
H      15.01      18.26       9.74
O      16.52      18.13       4.18
H      15.01      16.00      13.12
C      14.90      14.92      13.24
H      14.87      15.88      10.60
C      13.79      15.75      10.51
O      16.52      10.83      15.14
C      15.58      18.13       6.37
H      16.46      19.26       7.97
H      16.46      14.75      14.72
C      15.58      12.84      14.29
H      13.02      15.91       6.72
C      15.70      18.52       7.71
C      15.70      14.23      14.14
H      13.02      12.32      12.11
C      13.77      16.65       7.00
C      13.77      12.86      12.68
C      11.76      16.03       9.23
C      11.76      14.68      11.26
C      11.11      15.20      10.14
C      10.91      16.62       8.14
C      10.91      13.90      12.22
C      13.13      16.30       9.39
C      13.13      14.94      11.45
C      13.92      17.00       8.36
