15

H       9.64       0.24       0.91
C       9.87       0.61       3.04
N      11.13       1.13       3.21
C       7.29      -0.36       3.36
C       9.18       0.19       1.89
O       5.92      -1.11       0.90
H       6.29      -0.76       3.44
C       7.96       0.07       4.49
N      11.30       1.37       4.51
C       7.88      -0.30       2.06
O       7.85      -0.85      -0.23
C       9.27       0.56       4.32
N      10.21       1.04       5.19
H       7.51       0.02       5.48
C       7.14      -0.78       0.85
