10

C       8.40       3.55      52.66
C       9.88       3.57      52.80
C      10.70       3.83      51.78
C      12.18       3.85      51.92
H      10.29       3.38      53.80
H      10.30       4.03      50.78
O       7.92       3.52      51.49
O       7.74       3.59      53.75
O      12.85       4.10      50.86
O      12.67       3.60      53.07
