15

N       8.67       8.30      19.64
H      10.15       9.19      17.34
C      12.50       9.79      19.78
C       9.93       8.82      19.46
C      11.83       9.37      20.92
C      10.62       9.24      18.32
N       8.49       8.06      20.94
H      13.51      10.20      19.87
O      13.87      10.54      17.32
C      10.52       8.88      20.74
C      11.91       9.73      18.49
N       9.59       8.39      21.62
H      12.29       9.41      21.91
O      11.94      10.28      16.20
C      12.65      10.21      17.27
