18

C      23.25      12.82      20.51
C      20.08      14.52      20.16
C      18.84      15.09      22.36
C      23.40      12.80      19.12
C      19.93      14.55      21.55
C      21.29      13.89      19.78
C      22.04      13.45      20.88
O      24.17      12.30      21.36
H      23.85      12.43      22.28
H      19.49      14.92      18.39
O      17.85      15.61      21.74
O      25.49      11.75      18.92
O      18.99      15.00      23.63
O      19.16      15.04      19.30
S      22.06      13.54      18.28
S      21.27      13.80      22.39
O      24.33      12.36      17.04
C      24.49      12.26      18.31
