44

C       6.15       1.64       8.54
C       0.78      -1.20      18.58
H       5.55      -1.69      14.82
H       1.24       2.00      12.23
C       6.18      -0.33      11.75
C       0.63       0.63      15.44
H       5.38      -2.97      16.94
H       1.47       3.18      10.06
N       3.69      -0.38      13.64
N       3.07       0.71      13.51
O       4.43      -3.72      18.96
O       2.51       3.76       7.98
O       4.73       4.04       8.21
O       2.17      -3.81      18.94
H       6.65       2.42       7.97
H       5.19       1.38       8.07
H       6.78       0.74       8.60
H       1.46      -1.60      19.35
H      -0.26      -1.35      18.89
H       0.97      -0.13      18.43
O       5.95       2.11       9.89
O       0.92      -1.91      17.34
O       5.68       0.93      12.26
O       1.11      -0.64      14.97
H       6.50      -0.22      10.70
H       5.40      -1.10      11.84
H       7.04      -0.58      12.38
H       1.44       1.38      15.38
H       0.25       0.55      16.47
H      -0.19       0.92      14.77
C       3.62       3.56       8.59
C       3.29      -3.42      18.47
C       3.30      -2.54      17.26
C       3.57       2.74       9.83
C       2.16      -1.87      16.75
C       4.69       2.11      10.41
C       2.25      -1.14      15.54
C       4.56       1.43      11.65
C       3.49      -1.06      14.87
C       3.30       1.37      12.28
C       4.60      -1.75      15.37
C       2.20       2.04      11.72
C       4.51      -2.45      16.55
C       2.33       2.68      10.50
