18

C       0.00       2.32       3.48
O       0.87       2.93      -0.00
O      -0.90       7.20       4.16
C      -0.41       4.42       4.62
H       0.00       1.23       3.48
H      -0.73       4.96       5.51
C       0.41       4.42       2.34
O       0.90       7.20       2.80
C       0.00       5.11       3.48
H       0.73       4.96       1.45
C      -0.74       2.28       5.88
C       0.00       6.61       3.48
O      -0.87       1.00       5.86
C       0.74       2.28       1.08
C      -0.38       3.02       4.63
O       0.87       1.00       1.10
O      -0.87       2.93       6.96
C       0.38       3.02       2.33
