36

H      -0.32       1.26       7.13
N      -2.83       0.01       1.07
H      -2.07      -4.44      -3.87
N      -3.04       0.66       0.00
H      -2.88      -1.08      -6.48
N       1.75       3.62       6.32
H      -3.38      -3.38      -2.20
H      -3.51      -2.05      -0.11
H      -2.27      -1.06       3.31
H      -0.91      -0.08       5.15
H      -2.11       2.66       1.18
H      -3.22       1.58      -2.38
H      -0.77       3.67       3.02
H       1.43       4.00       4.27
H      -3.04       0.27      -4.49
C       0.25       2.01       6.59
C      -2.18      -3.74      -4.69
C      -2.58      -2.02      -6.01
C      -2.72      -2.43      -4.67
C      -0.72       1.86       4.21
C      -1.09       2.63       3.09
C      -1.85       2.08       2.06
C      -2.27       0.74       2.13
C      -1.95      -0.02       3.28
C      -1.19       0.54       4.30
C      -3.42      -1.56      -1.08
C      -3.33      -2.29      -2.25
C      -3.31      -0.15      -1.12
C      -3.12      -1.66      -3.50
C      -3.17      -0.25      -3.54
C      -3.27       0.49      -2.36
C       1.13       3.42       5.14
C       0.16       2.40       5.24
N       1.19       2.74       7.21
N      -1.74      -4.05      -5.92
N      -1.99      -2.98      -6.74
