24

H       5.74       5.40      21.75
H       4.39       7.07      19.88
H       8.18       5.95      20.42
H       8.60       8.17      22.16
H       7.26       9.84      20.29
H       4.81       9.29      21.62
C       5.42       8.18      26.27
O       5.70       9.36      26.64
O       4.71       7.33      26.94
O       7.23       5.93      15.30
O       8.31       7.94      15.16
C       7.56       7.07      15.75
C       5.32       7.31      20.41
C       6.07       6.38      21.41
C       5.86       7.79      24.96
C       7.12       7.41      17.08
C       5.56       8.55      21.33
C       6.30       7.61      22.38
C       6.92       8.85      20.63
C       6.69       7.62      19.66
C       7.67       7.92      21.64
C       7.43       6.69      20.71
C       6.08       7.67      23.77
C       6.90       7.55      18.27
