24

C       7.38       3.04      10.28
C      -0.47       1.48      11.41
C       3.89       2.10      11.34
C       3.03       2.42      10.35
N       8.13       2.46      11.24
N      -1.22       2.06      10.45
H       8.17       1.34      12.97
H      -1.26       3.18       8.72
H       5.67       1.12      13.11
H       1.24       3.40       8.59
H       5.45       3.47       9.47
H       1.46       1.06      12.22
H       7.95       3.56       9.51
C       7.51       1.79      12.23
H      -1.04       0.96      12.19
C      -0.60       2.73       9.46
H       3.50       1.67      12.27
C       6.13       1.68      12.29
H       3.41       2.85       9.42
C       0.78       2.85       9.40
C       5.33       2.26      11.29
C       1.58       2.27      10.41
C       6.00       2.97      10.27
C       0.91       1.56      11.42
