28

C       1.37       6.52       0.10
H       1.29       4.26      -0.06
H       2.39       4.84       1.23
H       0.33       6.55      -0.27
H       1.44       7.14       1.00
C       1.40       9.64      -1.07
C       2.58       9.15      -1.66
H       3.33       2.78       0.23
H       0.57       9.09      -0.65
H       4.24      10.42      -2.52
C       3.27      10.31      -2.03
C       4.32       2.86      -0.20
H       6.95       3.86      -1.89
H       4.66       8.03      -3.13
N       1.39      10.99      -1.09
H       5.60       5.80      -2.89
N       2.56      11.41      -1.69
C       6.16       3.42      -1.28
N       5.27       1.97       0.11
C       4.83       3.84      -1.07
C       2.45       6.76      -0.94
C       3.03       7.76      -1.72
N       6.41       2.31      -0.55
C       4.17       7.33      -2.45
C       4.71       6.05      -2.32
C       4.17       5.08      -1.44
C       2.99       5.48      -0.81
C       1.97       5.07       0.24
