10

N       8.41       5.45      14.43
N      11.16       5.54      14.53
H      11.17       3.98      13.14
H       8.40       7.01      15.82
F       8.53       3.76      12.91
F      11.05       7.22      16.06
C       9.16       4.63      13.70
C      10.42       6.36      15.26
C      10.55       4.66      13.73
C       9.02       6.34      15.23
