18

C      17.82       9.24      28.65
C      14.61      10.93      28.38
C      17.93       9.27      27.24
C      14.49      10.90      29.76
C      15.82      10.32      27.97
C      16.59       9.85      29.05
S      16.57      10.04      26.45
S      15.83      10.15      30.56
C      18.99       8.71      26.45
O      13.45      11.26      31.83
O      19.97       8.15      27.08
O      12.45      12.04      29.93
O      18.89       8.82      25.17
C      13.38      11.44      30.56
H      18.48       8.50      30.44
H      19.50       8.21      29.06
H      13.86      11.37      27.74
N      18.76       8.75      29.50
