10

H       8.01       1.35       0.00
H       9.51      -1.35      -0.00
O       5.78       0.03       0.00
O      11.73      -0.03      -0.00
O       6.99      -1.84       0.00
O      10.52       1.84      -0.00
C       6.92      -0.58       0.00
C      10.59       0.58      -0.00
C       8.14       0.27       0.00
C       9.37      -0.27      -0.00
