16

O      10.03      13.49       6.72
C       8.38      12.76       4.45
C       7.41      12.14       3.63
C       9.70      10.71       4.44
C       6.64      10.21       2.18
C       8.80      10.15       3.50
O       6.08      10.97       1.32
O       6.42       8.96       2.32
Cl       8.15      14.41       4.84
Cl       9.21       8.64       2.80
C       7.64      10.85       3.12
C       9.51      12.03       4.90
O      11.71      12.31       5.76
C      10.49      12.66       5.86
Cl       5.96      13.00       3.30
Cl      10.97       9.72       5.01
