16

C       1.66       4.01      15.80
C       0.96       3.17      16.63
C      -0.45       3.21      16.65
C      -1.16       4.07      15.84
C      -0.46       4.93      14.96
C       0.97       4.92      14.95
C       0.96       6.59      13.35
C      -0.45       6.58      13.33
H       2.75       4.00      15.79
H       1.49       2.47      17.28
H      -2.25       4.07      15.85
H       1.53       7.27      12.70
N       1.65       5.77      14.13
N      -1.14       5.76      14.11
Cl      -1.30       2.15      17.70
H      -1.01       7.24      12.67
