22

H      10.53       0.22       7.03
H       9.28       2.18       7.96
H       8.12       4.36       7.59
C      10.96      -0.03       4.96
H      10.06       2.11       2.44
H      11.24      -0.07       2.81
C      10.42       0.65       6.04
C       9.73       1.87       5.86
C       9.18       2.59       6.95
C       8.54       3.79       6.75
O      11.84      -1.73       6.36
O      12.02      -1.95       4.11
C       8.41       4.33       5.45
C       8.95       3.65       4.36
O       7.35       6.24       6.31
O       7.69       6.12       4.07
C       9.61       2.41       4.53
C      10.17       1.70       3.44
C      10.82       0.50       3.64
H       8.86       4.09       3.37
C      11.66      -1.33       5.16
C       7.76       5.66       5.25
