13

O      12.88       5.01      12.25
H      13.14       3.88      10.52
H      11.74       3.41      11.54
O      10.74       4.61       9.48
O      11.49       6.43      10.61
H      12.62       3.88      13.98
H      14.03       3.41      12.96
O      14.28       6.43      13.89
O      15.02       4.61      15.02
C      11.45       5.19      10.36
C      12.34       4.26      11.17
C      14.32       5.19      14.14
C      13.43       4.26      13.33
