20

C      23.86      -0.40      28.35
C      21.69       0.64      26.73
C      23.88      -0.47      26.96
C      21.67       0.69      28.15
C      22.84       0.04      26.19
C      22.72       0.19      28.93
C      24.69      -0.90      25.76
C      23.51      -0.33      24.88
H      22.66       0.26      30.01
H      25.66      -0.38      25.64
H      24.86      -1.98      25.68
H      22.97      -1.07      24.28
H      23.76       0.52      24.24
Br      20.22       1.43      29.15
C      20.66       1.17      25.79
O      19.63       1.75      26.27
O      20.92       1.00      24.55
C      24.97      -0.91      29.21
O      24.88      -0.71      30.46
O      25.91      -1.53      28.60
