24

O       2.38       6.03       7.88
O       4.36      -0.76      17.85
H       4.15       1.37      10.90
H       2.63       3.89      14.81
H       1.13       3.50      12.42
H       5.64       1.75      13.29
H       1.86       0.75      12.45
H       4.91       4.51      13.25
C       3.51       5.78       8.42
C       3.24      -0.53      17.29
C       3.81       1.91      11.78
C       2.96       3.34      13.93
C       2.53       1.59      12.62
C       4.24       3.66      13.09
C       3.27       0.29      16.10
C       3.49       4.97       9.60
C       4.64       2.15      13.08
C       2.13       3.11      12.62
C       3.36       1.81      13.95
C       3.41       3.45      11.75
C       3.32       0.99      15.10
C       3.45       4.27      10.60
O       4.65       6.18       8.01
O       2.09      -0.94      17.68
