28

H       3.53       6.85       4.29
H       2.97       7.83       2.19
H       3.71      12.37       4.03
H       4.84      10.66       9.74
H       4.11      12.68       8.53
C       4.42       8.20       9.13
C       3.18      12.46       1.46
C       3.06       8.83       2.60
C       3.21      11.23       2.31
C       4.51      10.57       8.71
C       4.11      11.72       8.02
C       3.62      11.62       6.73
C       3.68      10.40       6.00
C       4.01       9.20       6.76
C       3.45      10.28       4.56
C       3.30       8.98       3.98
C       3.56       7.83       4.77
C       3.98       7.94       6.06
C       3.47      11.37       3.67
C       3.00       9.94       1.78
C       4.36       9.32       8.13
I       2.76       9.67      -0.30
I       2.55      13.37       6.13
Br       4.66       6.34       6.83
O       3.30       7.69       9.47
O       5.55       7.95       9.66
O       4.30      13.05       1.28
O       2.05      12.83       1.03
