13

O       5.58       5.33       6.62
O       7.10       6.69       5.70
O       3.72       4.64       9.02
O       4.97       4.46      10.85
C       6.16       6.46       6.51
C       5.63       7.60       7.40
C       5.23       6.45       9.55
C       4.59       5.09       9.83
H       6.49       8.09       7.88
H       5.15       8.32       6.73
H       5.13       7.07      10.46
H       6.31       6.29       9.41
N       4.65       7.13       8.38
