16

O       0.26       4.90      16.03
F       3.91       2.90      11.83
F      -0.89       3.06      14.45
H       3.53       4.06      14.10
H      -0.51       1.90      12.18
C       0.30       3.05      13.80
C       1.64       1.50      10.64
O       2.76       1.06      10.25
C       1.38       4.47      15.64
O       0.52       1.31      10.05
C       1.59       2.28      11.91
C       1.42       3.68      14.37
C       2.71       2.91      12.48
O       2.50       4.66      16.23
C       2.64       3.59      13.68
C       0.38       2.37      12.60
