26

O       1.63       6.55       0.64
O       2.72       7.70      -1.00
H       2.78       4.61      -1.86
H       2.19       4.07      -0.28
H       3.78       2.36      -0.28
H       4.38       2.92      -1.85
O       7.44       2.68      -0.97
H       4.74       3.29       1.84
O       6.26       1.63       0.67
H       6.04       4.48       1.80
H       3.17       5.03       1.83
H       4.48       6.21       1.76
H       6.92       5.30      -0.47
H       6.24       4.64      -1.95
H       4.64       6.33      -1.99
H       5.33       7.01      -0.52
C       2.59       6.73      -0.18
C       6.47       2.59      -0.15
C       3.09       4.38      -0.83
C       4.15       3.24      -0.83
C       5.46       3.74      -0.15
C       5.12       4.16       1.29
C       4.07       5.31       1.28
C       3.68       5.65      -0.17
C       4.93       6.08      -0.96
C       5.98       4.95      -0.93
