26

C       5.73      10.87       1.89
H       4.59      14.23       7.87
C       6.62       8.85       0.72
H       8.57      12.97       6.83
C       5.83      12.21       2.26
H       8.16      13.83       4.51
S       7.32      14.61       2.23
S       5.74      15.16       3.39
H       8.74      10.60       0.33
H       4.85      10.29       2.14
N       8.00      12.33       1.21
H       5.04      12.72       2.80
N       5.18      14.61       5.91
C       6.80      13.02       8.92
O       7.67       8.24       0.30
C       6.60      13.51       7.52
O       5.44       8.37       0.77
C       5.41      14.13       7.15
O       8.00      12.75       9.25
C       7.61      13.41       6.56
O       5.76      12.91       9.65
C       7.39      13.89       5.28
C       6.15      14.49       4.98
C       6.99      12.88       1.88
C       7.90      11.03       0.87
C       6.77      10.26       1.18
