15

C       8.93       3.86       4.39
O       8.36      -0.82       3.85
C       8.67       1.50       4.15
C       7.55       4.04       4.15
H      10.57       2.44       4.59
C       6.70       2.95       3.89
H       5.63       3.09       3.71
C       7.28       1.70       3.89
H       6.68       0.81       3.70
N       9.45       5.11       4.59
C       9.18       0.09       4.20
N       8.45       5.99       4.48
O      10.38      -0.10       4.61
N       7.31       5.38       4.21
C       9.51       2.58       4.39
