16

C       8.60       5.87       5.16
O       6.36      10.73       8.91
O       8.99       5.99       3.97
C       7.18       9.49       7.04
H       7.56      10.42       5.14
H       8.29       8.29       4.04
C       7.55       9.48       5.69
O       8.65       4.80       5.86
C       7.97       8.30       5.08
H       7.75       6.19       7.73
C       8.04       7.11       5.81
H       6.95       8.32       8.81
O       7.19      11.86       7.14
C       7.65       7.11       7.16
C       7.22       8.29       7.76
C       6.87      10.78       7.74
