12

O       0.50      12.13      11.31
O      -0.26      10.92      13.08
C       0.64      11.34      12.33
C       2.06      10.92      12.58
C       2.40      10.49      13.86
C       4.58      10.14      13.19
C       3.08      10.90      11.62
N       3.64      10.10      14.16
N       4.33      10.51      11.93
H       1.65      10.44      14.64
H       5.60       9.87      13.45
H       2.90      11.18      10.58
