38

H      14.45       7.24       9.50
H      16.75       7.46       9.00
H      14.81       9.14       7.95
H      17.09       9.77       7.99
H      16.78      11.16       9.03
H      17.00       7.19      10.72
H      14.52      10.81       8.45
H      14.71       7.51      11.22
H      16.16       8.22      12.82
H      18.31      11.14      12.11
H      13.26       9.33      12.43
H      14.79      12.25      12.13
C      21.17       9.18       9.77
C      14.99      10.17      11.27
C      16.54       9.97      11.44
C      13.00       9.33      10.01
C      10.35       9.20       9.80
C      16.50       7.85      10.00
C      16.54      10.10       8.88
C      15.03       9.88       8.72
C      14.98       7.88      10.22
C      11.79       9.25       9.91
C      17.08       9.28      10.09
C      18.53       9.26      10.05
C      14.45       9.34      10.06
C      16.92       9.01      12.58
C      17.33      11.26      11.60
C      14.26       9.80      12.56
C      14.58      11.70      11.19
C      19.73       9.21       9.92
O      17.99       9.04      13.15
O      16.95      12.34      11.18
O      14.69      10.11      13.67
O      13.94      12.17      10.28
O      21.76       8.08      10.02
O      21.71      10.27       9.40
O       9.83       8.09       9.48
O       9.74      10.30      10.04
