40

H       1.79      11.57       9.15
H       2.15      13.72       5.44
H       2.15      15.35      11.34
H       1.80      17.49       7.62
H       2.81       8.62       8.32
H       1.21       8.30       7.64
H       1.36       9.23       9.15
H       1.14      11.52       3.31
H       2.74      10.77       3.36
H       2.59      12.54       3.42
H       1.14      17.55      13.48
H       2.73      18.30      13.42
H       2.58      16.52      13.36
H       2.81      20.44       8.46
H       1.22      20.77       9.14
H       1.36      19.83       7.63
C       1.97      20.00      11.55
C       1.98       9.06       5.23
C       1.98      10.36       5.98
C       1.90      10.34       7.39
C       1.88      11.56       8.07
C       1.97      12.78       7.38
C       2.07      12.77       5.97
C       2.05      11.57       5.26
C       1.97      14.00       8.08
C       1.97      15.06       8.70
C       1.97      16.28       9.40
C       2.06      16.30      10.80
C       2.05      17.50      11.52
C       1.97      18.71      10.80
C       1.90      18.72       9.39
C       1.88      17.51       8.71
C       1.81       9.06       8.17
C       2.14      11.60       3.76
C       2.13      17.47      13.02
C       1.81      20.01       8.61
O       1.04      20.20      12.40
O       2.90      20.84      11.29
O       1.05       8.87       4.38
O       2.90       8.22       5.49
