20

C      18.73       3.05      11.50
H      19.11       4.05      11.28
H      19.11      -1.18       6.73
C      18.73      -1.27       7.75
C      17.78       0.60      12.23
H      17.39      -0.35      12.59
C      17.79      -1.65      10.28
H      17.40      -1.87      11.27
H      19.09       2.25       9.56
C      18.72       2.03      10.56
H      19.09       0.76       8.27
C      18.72      -0.19       8.63
H      17.47       1.59      14.15
C      17.82       1.67      13.12
C      17.82      -2.67       9.35
H      17.47      -3.68       9.57
N      18.29       2.88      12.76
N      18.29      -2.49       8.10
C      18.24       0.76      10.91
C      18.25      -0.36       9.94
