51

C       8.71      20.09      13.22
O      13.11      17.66      18.36
C       7.76      21.43      11.67
C       9.41      18.61      15.13
C       8.89      17.73      16.10
C       9.67      17.29      17.16
C      11.01      17.70      17.26
O      11.40      16.82      19.50
C      11.55      18.52      16.26
O       4.73      26.21       6.73
C      10.77      18.98      15.21
O      12.62      26.78       7.75
C      11.87      17.38      18.41
C       9.94      21.65      12.16
C      11.66      23.20      11.13
C      12.98      23.64      11.35
C      13.53      24.63      10.56
C      12.78      25.21       9.52
C      11.48      24.74       9.28
C      10.91      23.75      10.07
H       7.35      26.18       9.73
C      13.33      26.32       8.72
H       7.86      24.21      11.15
H       5.03      21.87       8.90
H       4.53      23.86       7.48
H       7.83      17.44      16.06
H       9.23      16.66      17.92
H      12.59      18.83      16.34
H      11.18      19.64      14.46
H      13.56      23.20      12.16
N       6.65      21.79      10.95
C       5.53      22.82       9.08
N       7.59      20.41      12.53
H      14.54      25.00      10.73
N       9.91      20.67      13.08
H      10.91      25.17       8.46
C       5.55      26.32       7.70
N       8.91      22.10      11.44
H       9.90      23.40       9.89
C       5.90      25.14       8.52
N      11.18      22.21      12.00
C       6.84      25.23       9.55
N       8.54      19.09      14.15
C       7.13      24.13      10.35
C       5.25      23.92       8.29
C       6.47      22.91      10.13
O       6.03      27.49       8.00
H       5.88      21.14      11.04
H      11.86      21.83      12.64
H       7.58      18.77      14.20
O      14.47      26.80       9.02
