34

H       9.01       3.01      17.25
H       2.82       6.75      16.60
H       8.75       1.84      15.91
H       3.02       7.86      18.01
H       4.44       3.54      13.43
H       7.37       6.15      20.46
O       7.50       1.42      12.58
O       5.25       1.52      12.36
H       3.05       4.70      13.82
O       4.32       8.25      21.36
H       8.83       5.12      19.97
O       6.54       8.32      21.43
O       8.26       1.83      15.07
O       3.55       7.89      18.82
O       2.86       5.34      14.53
C       6.36       1.83      12.94
O       8.98       4.42      19.31
C       5.45       7.90      20.91
C       7.23       2.71      15.15
C       4.58       7.00      18.72
C       6.27       2.73      14.12
C       5.54       6.98      19.74
C       5.16       3.58      14.24
C       6.65       6.13      19.63
C       4.99       4.44      15.33
C       6.83       5.29      18.54
C       5.98       4.44      16.37
C       5.84       5.29      17.50
C       7.11       3.57      16.27
C       4.70       6.15      17.59
C       3.85       5.31      15.47
C       7.97       4.43      18.39
C       8.10       3.60      17.30
C       3.72       6.13      16.56
