16

C      11.77       3.84       5.85
C      14.91       3.43       7.92
C      13.70       1.32       7.92
C      15.86       1.48       9.19
H      11.85       1.31       6.79
H      14.00       5.03       6.79
C      12.83       3.23       6.71
C      14.80       2.09       8.33
O      10.79       3.09       5.52
O      11.93       5.06       5.52
H      13.63       0.29       8.25
H      15.78       4.00       8.25
C      12.72       1.89       7.12
C      13.93       3.99       7.12
O      16.84       2.23       9.52
O      15.70       0.26       9.52
