16

O      14.10      18.30      26.09
C      10.88      17.40      27.56
O      13.09      16.25      26.03
C      12.06      18.02      27.17
C       9.82      20.37      29.30
C      10.63      19.51      28.52
C      10.04      18.24      28.33
C       8.65      19.73      29.67
O       6.54      19.53      30.66
O       7.73      21.47      30.95
F      10.54      16.14      27.24
S      12.16      19.66      27.75
C      13.16      17.48      26.38
S       8.50      18.10      29.08
C       7.56      20.29      30.48
H      10.05      21.39      29.59
