10

O       6.46       3.91       8.04
O       4.18       3.91       8.04
C       5.32      -3.34       8.04
C       5.32      -0.67       8.04
C       5.32      -1.89       8.04
C       5.32       3.34       8.04
C       5.32       0.68       8.04
C       5.32       1.90       8.04
O       6.46      -3.90       8.04
O       4.18      -3.90       8.04
