33

C       6.02       1.89       9.61
H      -0.39       2.43       9.24
C       5.46       0.50       9.71
H       1.87       1.49       8.76
C       4.73       0.12      10.85
H       3.40       5.48       8.28
C       4.19      -1.15      10.96
H       1.15       6.41       8.82
C       4.37      -2.09       9.94
H       4.09       1.82       7.94
C       5.08      -1.72       8.78
H       4.71       3.43       7.50
C       5.61      -0.43       8.67
C       3.88      -3.49      10.09
H       6.67       2.00       8.73
N       4.97       2.94       9.53
H       6.63       2.12      10.49
O      -1.09       6.25       9.86
H       4.60       0.84      11.66
O      -2.09       4.26       9.41
H       3.64      -1.45      11.86
O       3.22      -3.77      11.15
H       5.21      -2.45       7.99
O       4.20      -4.31       9.17
H       6.17      -0.15       7.78
C      -1.08       5.04       9.47
C       0.25       4.48       9.07
C       0.45       3.09       9.03
C       1.71       2.57       8.76
C       2.79       3.43       8.49
C       2.57       4.82       8.48
C       1.31       5.34       8.78
C       4.17       2.87       8.28
