20

F       2.33      12.78      13.35
F      -1.99      15.97      12.29
F       2.36      14.39      11.17
F      -2.01      14.37      14.47
C       0.12      17.57       8.37
C       0.18      11.18      17.28
C       1.29      14.39      11.98
C      -0.94      14.36      13.66
C       0.19      15.22      11.67
C       0.16      13.53      13.96
C      -0.92      15.18      12.54
C       1.27      13.56      13.10
C       0.19      16.04      10.54
C       0.15      12.70      15.10
C       0.16      11.99      16.09
C       0.16      16.75       9.55
O       1.23      17.96       7.90
O      -0.95      10.78      17.71
O      -1.03      17.82       7.89
O       1.32      10.97      17.81
