44

C       5.84      12.06      12.62
C      15.23      11.40      12.69
C      10.91      14.20       8.86
N      11.95      12.91      10.60
C       9.54      13.04      10.63
H      10.00      14.54       8.37
C      11.50      17.18       5.72
C      13.30      14.01       8.95
C      13.16      13.22      10.10
H      10.81      18.00       5.50
C      13.34      15.95       5.04
H      14.28      14.27       8.56
N      12.46      16.95       4.81
C      11.37      16.41       6.87
H      14.09      15.79       4.26
O       4.86      12.87      12.40
C      16.74      12.48      11.14
H      10.57      16.64       7.59
O      17.52      10.22      13.91
C      14.14      11.91      11.99
H      17.76      12.70      10.84
O      18.89      11.34      12.54
C      10.84      13.39      10.01
H      13.12      11.71      12.31
O       5.82      11.10      13.44
C      12.16      14.52       8.32
H       6.26      14.00      10.77
C       7.17      13.43      10.97
H      15.85      13.60       9.56
C      17.73      11.07      12.94
H      13.99      14.34       6.29
C      12.27      15.37       7.12
H       8.39      14.61       9.67
C      16.54      11.67      12.27
H       8.22      10.82      12.87
C      14.34      12.69      10.84
H      10.39      11.42      11.77
C      15.66      12.98      10.43
H      15.07      10.77      13.57
C      13.28      15.15       6.17
C       8.37      13.76      10.35
C       8.28      11.64      12.15
C       7.11      12.37      11.88
C       9.48      11.97      11.54
