26

O      16.33      12.00       0.71
H      15.11      13.79      -1.76
H      15.70      14.41      -0.21
H      14.10      16.12      -0.31
H      13.49      15.46      -1.83
H      13.20      15.29       1.89
H      11.89      14.11       1.93
O      15.12      10.73      -0.73
H      14.75      13.53       1.96
H      13.43      12.36       1.94
H      13.23      12.08      -1.78
O      11.78      16.97       0.50
H      10.98      13.17      -0.25
H      11.60      13.75      -1.79
O      10.32      15.68      -0.66
H      12.57      11.46      -0.28
C      15.30      11.76      -0.01
C      11.44      15.88      -0.08
C      14.80      14.08      -0.74
C      13.73      15.20      -0.79
C      12.45      14.74      -0.07
C      12.81      14.39       1.39
C      13.84      13.24       1.42
C      14.22      12.83      -0.02
C      12.96      12.37      -0.76
C      11.90      13.49      -0.76
