16

C       4.07      11.19      16.41
C       3.32      12.48      16.38
C       2.88      13.00      15.15
C       2.23      14.23      15.10
C       2.01      14.96      16.29
C       2.43      14.43      17.52
C       3.08      13.20      17.56
C       1.34      16.29      16.25
H       3.07      12.43      14.24
H       1.89      14.65      14.16
H       2.25      15.00      18.43
H       3.43      12.78      18.50
O       4.37      10.67      15.28
O       4.37      10.71      17.56
O       1.08      16.79      15.10
O       1.07      16.82      17.37
