13

C       8.66       1.68      13.65
H      10.92       2.47      10.39
C       9.86       1.93      12.77
O       9.08       4.93      10.23
H      11.57       3.60      11.63
H      10.08       1.02      12.17
H      10.73       2.15      13.41
O      11.20       4.93       9.41
O       9.59       3.02      11.90
O       7.68       2.51      13.57
O       8.74       0.68      14.39
C      10.29       4.50      10.15
C      10.67       3.33      11.04
