32

C       9.05       0.44       2.39
H      11.22       0.83       3.87
H      12.53       1.34       5.94
N      11.68       2.57      10.59
H      12.62       1.93       8.30
O      10.29       3.49      12.67
H       5.76       2.03       5.96
H       5.84       2.67       8.35
H       7.15       3.06      10.42
H       6.94       1.18       3.91
O      10.16       0.15       1.85
O       7.90       0.26       1.84
H      11.64       2.77      11.59
H      12.48       2.08      10.21
O       8.05       3.66      12.44
C      10.49       2.52       9.94
C       9.19       3.36      11.98
C      10.45       2.16       8.55
C      10.37       1.45       5.78
C      11.61       1.54       6.49
C      11.64       1.87       7.81
C      10.31       1.07       4.43
C       9.08       0.97       3.78
C       8.06       2.80       9.88
C       7.99       2.42       8.54
C       9.21       2.10       7.86
C       6.75       2.38       7.82
C       6.71       2.02       6.50
C       7.91       1.68       5.79
C       9.16       1.74       6.48
C       7.89       1.28       4.45
C       9.27       2.87      10.59
