14

C      -0.36      -0.66       7.31
C       0.45      -0.55       8.39
O      -0.59       1.80      11.76
O       0.68       0.52      13.11
O       1.20      -1.92       6.06
O      -0.94      -1.77       5.31
H       1.71      -0.39      10.85
H      -0.89       0.68       9.58
H      -1.35      -0.20       7.30
H       1.42      -1.04       8.36
C       0.26       0.87      11.94
C       0.78       0.17      10.74
C       0.07       0.15       9.59
C      -0.01      -1.50       6.14
