39

C       7.73       9.76       1.24
C       8.88       9.39       2.10
C       9.59      10.27       2.82
H       9.11       8.32       2.14
H       9.28      11.32       2.79
C      10.74       9.88       3.67
C      10.65       9.99       5.07
H       9.21      10.10       6.68
C      11.74       9.55       5.86
H       8.51      10.24       5.05
C      12.89       8.98       5.24
H       9.38      11.60       5.76
O       7.59      10.98       0.92
C      12.95       8.86       3.84
H      13.97       8.75       7.12
O       6.97       8.79       0.88
C      11.90       9.38       3.04
H      14.99       8.95       5.70
C       9.37      10.50       5.67
O      11.51      11.68      10.18
H      14.19       7.41       5.97
H      11.58      10.40       1.17
O      11.57       9.40      10.12
C      14.06       8.50       6.06
H      11.50       8.65       1.03
C      12.02       9.46       1.54
O      16.19       6.64       1.93
H      13.07       9.42       1.24
C      11.69       9.59       7.32
O      14.54       5.31       1.08
H      12.08       8.72       7.86
C      11.27      10.60       8.11
H      10.92      11.56       7.71
C      11.45      10.55       9.57
C      14.07       8.14       3.23
H      15.09       8.33       3.58
C      13.90       7.17       2.31
H      12.89       6.89       1.98
C      14.97       6.33       1.74
