54

O      10.79      16.28       6.27
C      13.14       8.20      10.02
O       9.52      15.47       4.64
H      12.46      14.54       7.19
C      12.15       9.93       6.79
O      14.35       7.04      11.68
C      14.33       2.01       7.68
H       9.64      10.55      15.98
C      11.02      10.99      11.57
C      10.41      12.83       5.08
H      11.11      11.33       8.95
C      13.89       7.01      10.54
C      15.07       4.89      10.02
C      11.31      10.85      13.01
C      13.21       4.24       8.03
H      15.99       2.98       9.55
H      12.58       8.71      12.02
C      11.79      10.14      10.59
H      13.87      10.41      15.22
C      11.70      10.46       9.23
C      12.39      12.42       7.00
H      13.17      12.26       7.74
H       9.22      10.97      13.55
C      10.47      10.62      15.28
H      10.33      10.67       4.92
H       9.62      13.01       4.35
C      12.06      10.05      17.16
H      13.47      10.76      12.80
C      10.98      13.93       5.74
H      15.76       5.15      10.83
C      11.78      11.32       6.38
C      13.06       8.54       8.67
C      12.63      10.72      13.49
H      12.48       3.96       7.28
C      11.78      10.43      15.74
H      12.32       6.14       8.44
C      14.24       3.34       8.35
C      15.19       3.69       9.33
H      13.55       7.94       7.90
C      12.51       9.01      10.98
C      10.24      10.84      13.92
C      11.99      13.71       6.68
C      13.13       5.46       8.68
C      12.33       9.67       8.26
C      12.86      10.52      14.84
O      12.26       9.01       5.98
C      10.43      15.30       5.51
O      13.26       9.74      17.43
C      10.80      11.53       5.39
O      13.25       1.49       7.25
O      10.14      11.75      11.15
O      15.47       1.48       7.62
O      11.10      10.04      17.99
C      14.04       5.79       9.70
