24

Br       7.71       6.93       9.64
Br       0.10      10.79       6.12
H       4.04       9.86       5.25
N       7.46       8.21       7.17
H       3.82       7.48       9.40
N       0.36       8.07       6.86
H       4.06       5.90       7.42
H       2.35      11.20       6.41
O       4.82       9.33       4.99
O       3.09       5.78       7.44
O       4.77       7.24       9.38
O       3.04      10.52       6.62
C       5.39       8.81       6.09
C       2.47       6.97       7.25
C       6.80       8.77       6.16
C       1.07       6.97       7.14
C       6.77       7.70       8.20
C       1.01       9.21       6.67
C       5.37       7.73       8.26
C       2.40       9.33       6.82
C       4.65       8.25       7.16
C       3.17       8.19       7.11
Br       7.74       9.56       4.74
Br       0.16       5.34       7.35
