22

O       6.63      17.28       9.87
H       6.55      14.88       9.09
O       8.05      11.53       2.76
H       8.17      17.09       3.81
H       6.62      13.08       7.36
O       7.88      18.57       8.47
O       7.19      13.00       1.24
H       8.09      15.33       2.05
H       7.11      12.37       5.01
H       7.90      17.76       6.20
C       7.60      15.75       5.42
C       7.61      16.73       6.44
C       6.85      15.09       8.06
C       6.89      14.11       7.11
C       7.25      17.50       8.77
C       7.62      12.68       2.40
C       7.24      16.42       7.73
C       7.61      13.74       3.45
C       7.26      14.40       5.77
C       7.92      16.06       4.07
C       7.88      15.09       3.09
C       7.32      13.41       4.76
