26

Cl      14.21       6.45       2.00
Cl      15.22       7.33      -1.95
O      11.90       1.71       1.32
O      12.18       1.27      -0.90
O      20.37       8.97       1.19
O      19.99       9.53      -0.98
H      12.56       4.15       1.70
H      17.62       8.82      -1.59
H      19.46       6.69       1.66
H      17.59       5.02       1.62
H      14.54       2.08      -1.50
H      16.33       3.83      -1.52
C      13.45       3.01       0.10
C      18.65       7.85       0.03
C      13.37       4.09       0.98
C      12.42       1.92       0.17
C      14.35       5.09       0.93
C      17.61       7.99      -0.88
C      19.76       8.85       0.07
C      16.54       7.09      -0.86
C      18.64       6.78       0.95
C      17.60       5.87       0.93
C      14.50       2.92      -0.82
C      15.49       3.90      -0.83
C      15.43       5.00       0.04
C      16.52       6.01       0.03
