22

H       6.24       2.07      10.55
H       6.39      -2.92      10.54
H      10.04      -1.58       7.70
H      10.04       0.92       7.80
C       8.26       2.52       8.86
C       8.27      -3.26       8.70
C       8.26       1.04       8.97
C       7.25       0.32       9.70
C       9.26       0.35       8.31
C       6.28       0.98      10.51
C       5.39       0.25      11.25
C       8.27      -1.78       8.89
C       9.27      -1.05       8.26
C       7.27      -1.12       9.67
C       6.35      -1.84      10.48
C       5.43      -1.16      11.24
O       9.40       3.09       8.89
O       9.41      -3.84       8.71
O       7.15      -3.84       8.52
O       7.14       3.11       8.69
F       4.47       0.86      12.03
F       4.56      -1.84      12.03
