30

H       3.79       5.54       0.95
H      -0.38       5.64      -1.03
H       3.83       4.62      -3.44
H       3.79       4.48      -0.96
H      -0.48       4.68       3.32
H      -0.41       4.53       0.84
C       1.50       5.37       5.01
C       1.85       5.25      -5.13
C       1.57       5.18       3.53
C       1.79       5.17      -3.63
C       2.77       5.35       2.82
C       2.84       5.35       1.44
C       0.61       5.39      -2.91
C       0.56       5.40      -1.53
C       2.92       4.86      -2.89
C       2.89       4.80      -1.50
C       0.44       4.89       2.77
C       0.49       4.82       1.39
C       1.67       5.10       0.69
C       1.72       5.11      -0.79
N       4.05       5.44       3.54
N      -0.68       5.48      -3.61
O       2.62       5.46       5.61
O       2.98       5.13      -5.67
O       0.74       5.45      -5.72
O       0.35       5.46       5.54
O       4.52       4.35       3.90
O       4.58       6.55       3.68
O      -1.12       4.38      -4.00
O      -1.27       6.56      -3.68
