12

O      -0.94       6.79      11.65
C       0.22       5.93       1.96
C       0.30       6.30       8.51
O      -0.93       5.79       1.42
C       0.22       6.64      11.14
C       0.25       6.25       3.36
O       1.34       5.74       1.39
C       0.27       6.28       4.59
C       0.29       6.28       5.93
C       0.30       6.27       7.17
O       1.34       6.80      11.75
C       0.28       6.35       9.74
