20

H      -5.89       9.27       9.98
H      -2.23       8.95       6.74
C      -5.62       6.72       8.37
C      -2.51      11.51       8.36
C      -4.86      10.16       8.05
C      -3.55       9.32       9.60
C      -5.07       9.21       9.26
C      -4.79       7.95       8.34
C      -4.57       8.92       7.12
C      -3.26       8.07       8.68
C      -3.05       9.02       7.46
C      -3.31      10.26       8.36
Cl      -5.87      11.50       7.64
Cl      -2.90       9.57      11.18
Cl      -5.19       8.71       5.52
Cl      -2.20       6.77       9.10
O      -1.52      11.56       7.56
O      -2.88      12.42       9.17
O      -5.27       5.81       9.19
O      -6.62       6.69       7.58
