18

H      14.58       5.65      18.94
H      19.98       3.65      21.75
O      15.57       2.26      18.17
C      16.34       4.09      19.47
O      14.36       4.18      18.17
C      18.22       5.22      21.22
C      16.17       5.43      19.92
C      18.39       3.87      20.77
H      17.00       6.99      21.14
H      17.56       2.31      19.55
C      17.12       5.96      20.79
C      17.44       3.34      19.90
C      15.37       3.46      18.54
O      20.20       5.12      22.52
O      15.13       6.21      19.55
O      18.99       7.04      22.52
O      19.43       3.09      21.14
C      19.19       5.85      22.15
