13

C      10.03       5.16       1.89
C      11.45       4.22       3.53
O       9.16       7.34       2.44
O       8.51       6.29       0.53
O      12.32       5.78       5.14
O      12.97       3.60       5.18
H      12.11       3.85       2.72
H      10.74       3.42       3.81
H       9.37       4.28       1.97
H      10.74       5.01       1.06
C       9.17       6.38       1.62
O      10.74       5.37       3.10
C      12.31       4.59       4.72
