32

H       0.76      18.96       7.41
H       0.84      16.76       8.55
H       3.21      15.19       5.29
H       3.19      17.42       4.22
H       3.21      13.45      11.24
H       0.84      11.88       7.98
H       0.76       9.68       9.13
H       3.19      11.22      12.32
H       1.79      13.67       5.87
H       1.79      14.97      10.66
C       1.97       8.99      11.46
C       1.97      19.65       5.08
C       1.98      18.33       5.75
C       1.32      18.13       6.97
C       1.36      16.90       7.61
C       2.03      15.81       7.01
C       2.65      16.01       5.76
C       2.65      17.26       5.15
C       2.04      14.47       7.60
C       2.04      14.17       8.93
C       2.65      12.63      10.78
C       2.03      12.83       9.53
C       1.36      11.74       8.93
C       1.32      10.51       9.57
C       1.98      10.31      10.79
C       2.65      11.38      11.38
O       2.90       8.75      12.30
O       1.03       8.17      11.16
O       2.90      19.89       4.24
O       1.03      20.47       5.38
O       2.20      13.41       6.72
O       2.20      15.23       9.82
