20

C       6.76      17.35      11.10
N       7.33      16.41       8.97
H       6.31      18.18      11.65
H       9.48      15.32      15.80
C       8.62      15.73      15.28
H       8.30      14.58       8.95
C       7.87      15.35       9.60
C       6.54      16.73      15.43
H       5.76      17.11      16.09
C       6.77      17.38       9.71
H       6.33      18.21       9.15
C       7.91      15.25      10.98
H       8.35      14.37      11.45
H       9.39      15.30      13.32
C       8.55      15.71      13.89
H       5.48      17.14      13.61
C       7.35      16.27      11.77
C       6.40      16.75      14.05
C       7.43      16.24      13.24
N       7.64      16.25      16.04
