30

O       2.70       6.33       3.09
H       4.56       6.11       0.49
H       3.05       5.80      -1.69
H       1.30       5.81      -1.33
H       1.49      10.49       0.34
H       5.95       6.99       4.33
H       5.67       7.25       2.02
H       4.43       8.48       2.32
H       4.22       7.04       6.70
H       5.92       7.55       6.44
H       4.27       8.19      -1.83
H       1.68       5.53       1.05
C       2.29       6.12      -0.96
C       2.70       3.90       0.12
C       1.97       9.63      -0.11
C       4.79       7.47       2.62
C       4.87       7.87       6.39
C       3.38       8.44      -1.25
C       2.38       7.60      -0.82
C       4.46       8.20       4.96
C       3.64       6.51       2.28
C       2.55       5.40       0.39
N       3.70       5.98       1.05
N       1.48       8.37      -0.09
N       3.12       9.73      -0.81
N       4.67       9.02       7.28
N       5.13       7.49       4.02
O       3.89       3.52      -0.19
O       1.68       3.16       0.14
O       3.55       9.02       4.72
