18

O       7.61       0.87      10.44
H       9.31       0.00      13.92
O       3.35      -0.90      14.60
H       5.58      -0.73      15.95
O       3.35       0.90      13.24
H       5.58       0.73      11.89
C       8.26      -0.74      16.32
C       8.26       0.74      11.52
C       7.53      -0.38      15.07
C       7.53       0.38      12.77
C       8.23       0.00      13.92
C       6.13      -0.41      15.06
C       6.13       0.41      12.78
C       5.43       0.00      13.92
C       3.93       0.00      13.92
O       9.54      -0.87      16.30
O       9.54       0.87      11.54
O       7.61      -0.87      17.40
