13

C      16.28       7.73       9.33
O      15.13       7.46       6.41
H      17.94       8.58       6.51
C      15.83       8.52       6.29
O      14.66       6.51      10.62
N      17.16       7.55       8.16
C      15.43       6.50       9.61
O      15.56       9.45       5.48
H      16.85       7.97      10.24
C      17.07       8.64       7.18
H      17.07       9.63       7.66
H      15.59       8.57       9.18
O      15.50       5.50       8.81
