16

C       5.53      -3.56       8.71
C       3.57      -4.53       7.67
O       6.40      -1.50       7.95
H       4.48      -2.66       7.06
H       4.70      -6.52      10.20
C       2.62      -6.70       8.51
C       6.55      -2.48       8.76
H       6.41      -4.68      10.33
H       2.77      -4.50       6.93
O       1.67      -6.56       7.66
O       7.50      -2.61       9.61
O       2.78      -7.67       9.32
C       5.61      -4.65       9.60
C       3.64      -5.61       8.56
C       4.51      -3.51       7.75
C       4.66      -5.67       9.52
