44

O       5.26      15.74      20.59
C       2.76      22.44      18.37
O      10.18      11.13      15.77
C       3.01      22.10      19.72
H       3.01      22.61      15.48
O       9.14      13.20      14.53
C       3.09      23.15      20.66
H       1.87      23.81      14.79
C       3.02      24.48      20.27
H       1.27      22.61      15.98
C       3.27      20.75      20.14
H       2.64      21.64      17.63
C       3.61      19.70      19.35
H       3.26      22.90      21.71
C       4.00      18.41      19.92
H       3.12      25.29      21.00
C       4.65      17.49      19.06
H       3.27      20.56      21.22
C       5.27      16.27      19.40
H       3.71      19.81      18.27
C       6.01      15.55      18.37
H       4.75      17.80      18.02
C       6.65      14.39      18.67
H       6.05      16.00      17.38
C       7.50      13.55      17.86
H       6.52      14.04      19.70
C       8.04      12.40      18.45
H       7.77      12.15      19.48
C       8.92      11.57      17.76
H       9.35      10.69      18.23
C       9.29      11.87      16.45
H       7.46      14.75      16.04
C       8.72      13.02      15.82
H       7.66      14.45      13.75
C       7.86      13.85      16.52
H       9.20      14.30      12.84
C       8.75      14.39      13.83
H       9.16      15.28      14.34
O       2.42      24.20      16.70
C       2.13      23.24      15.68
O       2.81      26.07      18.48
C       2.84      24.82      18.93
O       3.78      18.23      21.18
C       2.66      23.76      17.99
