20

C      -1.97       6.54       2.06
H      -0.05       5.48       6.19
O       3.14       3.55       4.84
O      -1.82       6.46       0.79
H      -1.81       6.50       4.76
H       2.04       3.07       1.90
H       0.27       4.12       0.44
H       2.98       4.58       1.86
H       1.20       5.64       0.42
O      -2.94       7.11       2.67
O       2.00       4.27       6.68
C       2.17       4.14       5.42
C       0.18       5.25       2.35
C       1.17       4.67       3.15
C      -0.91       5.92       2.89
C       1.13       4.74       4.55
C      -0.97       5.99       4.30
C       0.02       5.41       5.10
C       1.97       4.16       1.97
C       0.85       4.82       1.06
