14

C       3.47       5.09       2.82
C       6.17       5.54      -1.28
H       5.60       5.38       1.37
C       5.00       5.18      -0.71
C       3.57       4.97       1.33
C       4.76       5.16       0.70
I       1.78       4.55       0.30
H       4.17       4.92      -1.37
H       7.04       5.80      -0.68
O       5.27       5.42      -3.45
O       7.46       5.95      -3.21
C       6.31       5.64      -2.75
O       2.33       5.35       3.32
O       4.56       4.94       3.46
