38

C       0.26       3.79       5.56
C       0.15       2.40       5.42
H       1.41       0.88       6.50
C      -2.14      -3.30      -5.31
C      -1.63      -1.39      -6.21
N       1.78       2.92       6.91
N       1.23       4.09       6.45
N      -1.63      -3.53      -6.54
N      -1.31      -2.32      -7.11
F      -1.43      -0.09      -6.52
H      -1.96       3.43       4.06
H      -3.22      -3.11      -2.83
H      -2.08       0.75      -4.38
H      -2.97       1.58       0.13
H      -1.25      -1.37       3.09
H      -3.65      -2.11      -0.64
H       0.10      -0.27       4.83
H      -2.68      -1.28       1.21
H      -3.26       2.35       2.28
H      -2.54       1.75      -2.18
H      -2.46      -4.13      -4.69
H      -0.29       4.59       5.07
C       1.14       1.91       6.29
C      -2.16      -1.92      -5.02
C      -0.76       1.69       4.53
C      -1.77       2.38       3.83
C      -2.51       1.77       2.83
C      -2.29       0.42       2.49
C      -1.40      -0.31       3.30
C      -0.64       0.31       4.29
C      -3.29      -1.48      -1.45
C      -3.05      -2.04      -2.69
C      -2.43       0.11      -3.57
C      -2.69       0.68      -2.32
C      -3.06      -0.11      -1.22
C      -2.75      -0.19       1.26
C      -3.01       0.49       0.11
C      -2.56      -1.27      -3.77
