32

N       6.76      12.47       1.93
N       8.53      13.71       1.45
N       9.62      21.79       3.36
N      10.28      20.04       4.54
H       8.46      12.55       3.26
H       5.61      12.97       0.17
H       7.85      14.54      -0.42
H      10.11      14.69       0.56
H      10.57      13.56       1.82
H      12.03      15.26       2.81
H      12.21      17.16       4.40
H       7.94      17.77       4.14
H       7.78      15.89       2.54
H       8.17      20.49       4.30
H      11.60      22.46       2.80
H      12.42      20.26       4.26
H       9.32      18.87       5.95
H      11.08      18.72       5.93
C       7.97      12.86       2.34
C       6.54      13.11       0.73
C       7.63      13.89       0.42
C       9.84      14.33       1.56
C       9.90      15.46       2.56
C      11.14      15.83       3.09
C      11.23      16.89       3.99
C      10.09      17.59       4.38
C       8.84      17.22       3.85
C       8.75      16.17       2.95
C       9.21      20.75       4.09
C      11.00      21.73       3.33
C      11.42      20.64       4.05
C      10.19      18.79       5.29
