16

O      18.55      14.53       0.73
O      18.41      15.79       2.64
O      18.56       7.29       5.51
C      18.53       9.76       3.93
C      18.41      13.35       4.18
C      18.47       9.63       5.31
C      18.48      13.45       2.80
C      18.43      11.99       4.58
C      18.51      11.10       3.50
S      18.38      11.18       6.10
S      18.56      11.91       1.98
C      18.48       8.41       6.12
O      18.40       8.58       7.39
F      18.61       8.72       3.07
C      18.48      14.68       2.00
H      18.35      14.22       4.83
