48

C       3.61       7.02       9.30
C       3.38       2.97      10.89
P       2.04       0.99      12.31
C       2.42       6.27       9.30
C       1.06       3.44      11.41
P       2.75      10.19       6.88
O       0.82       1.08      13.21
C       1.81      -0.22      10.97
H       4.25       2.32      10.96
O       3.38       0.68      12.96
C       1.06       0.10       9.83
H       0.14       3.17      11.94
O       3.98      10.90       7.44
C       0.95      -0.82       8.78
H       0.57       1.07       9.75
O       1.41      10.90       6.96
C       1.58      -2.06       8.87
H       0.37      -0.56       7.89
C       2.32      -2.39      10.01
H       1.50      -2.77       8.05
C       2.45      -1.47      11.05
H       2.81      -3.36      10.09
C       1.14       4.63      10.70
H       3.05      -1.70      11.93
C       3.46       4.17      10.18
H       0.27       5.28      10.65
C       2.34       5.01      10.06
H       4.39       4.44       9.69
C       2.62       8.66       7.82
H       4.61       8.81       8.61
C       3.71       8.21       8.58
H       0.57       8.28       7.24
C       1.42       7.92       7.82
H       1.44      11.04       4.45
C       2.98       9.70       5.14
H       1.66      10.34       2.06
C       2.17      10.28       4.16
H       3.30       8.57       1.43
C       2.29       9.88       2.82
H       4.75       7.55       3.18
C       3.21       8.89       2.47
H       4.55       8.27       5.54
C       4.02       8.31       3.45
H       0.40       6.17       8.52
C       3.91       8.72       4.78
H       4.46       6.70       9.90
C       1.33       6.75       8.55
C       2.17       2.59      11.49
