18

H      13.50      11.18      13.02
H      12.27       5.11      11.46
O      12.60      10.95      13.30
O      13.13       5.34      11.06
O      10.16      10.74      14.64
O       9.06       8.74      14.40
S      11.06       7.36      12.87
S      14.68       8.94      11.46
C      10.05       9.54      14.21
O      16.63       7.58       9.87
C      12.33       9.66      13.01
O      15.62       5.53       9.77
C      15.69       6.75      10.13
C      13.42       6.63      11.35
C      11.15       9.02      13.41
C      13.15       8.79      12.26
C      14.59       7.27      10.93
C      12.60       7.51      12.11
