18

O      24.52      18.35      15.54
O      23.11      18.35      13.75
N      24.67      18.49      11.10
C      24.24      18.20      14.30
C      25.52      17.80      12.06
S      26.69      16.97      14.22
S      27.44      16.84      10.12
O      24.65      18.00       9.95
C      29.88      15.51      10.13
O      29.81      15.70       8.86
H      29.40      15.57      12.95
C      28.65      16.02      12.31
C      25.36      17.77      13.44
C      28.77      16.06      10.93
C      27.45      16.65      12.71
C      26.69      17.14      11.63
O      24.08      19.52      11.45
O      30.81      14.91      10.76
