32

O      -2.47      26.08       8.33
O      -4.69      26.31       7.92
H      -5.71      18.41       3.36
H      -1.45      17.99       4.12
H      -5.71      22.25       5.46
H      -1.45      21.82       6.23
O      -4.69      14.15       1.25
O      -2.47      13.92       1.67
H      -1.36      14.90       2.46
H      -5.80      15.34       1.65
O      -1.19      15.75       2.95
O      -5.97      16.22       2.09
O      -1.19      24.02       7.49
O      -5.97      24.49       6.63
H      -1.36      24.89       7.93
H      -5.79      25.33       7.13
C      -3.58      25.64       7.82
C      -3.58      14.59       1.76
C      -3.58      15.86       2.46
C      -2.37      16.39       3.03
C      -2.38      17.61       3.70
C      -3.58      18.34       3.82
C      -4.78      17.85       3.27
C      -4.79      16.63       2.60
C      -3.58      19.58       4.50
C      -3.58      20.65       5.08
C      -3.58      21.89       5.77
C      -2.38      22.38       6.32
C      -2.37      23.60       6.99
C      -3.58      24.37       7.12
C      -4.79      23.84       6.55
C      -4.78      22.62       5.88
