26

O      10.52       7.46       1.94
O      16.41       8.37      -1.94
H      13.21       5.86      -2.46
O      13.73       6.68      -2.44
H      13.72       9.97       2.46
O      13.20       9.15       2.44
H      15.92       7.45       2.02
O      15.94       7.96       1.19
O      10.99       7.87      -1.19
O      14.21       5.29       0.47
O      12.73      10.54      -0.47
H      11.01       8.38      -2.02
H      11.88      10.71      -0.00
H      15.05       5.12       0.00
O      15.26      10.34      -2.05
O      11.67       5.49       2.05
C      12.25       7.93      -0.62
C      14.68       7.90       0.62
C      13.57       7.26      -1.19
C      13.36       8.57       1.19
C      14.38       8.56      -0.78
C      12.55       7.28       0.78
C      11.50       6.69       1.66
C      15.43       9.14      -1.66
C      13.07       9.22      -0.22
C      13.86       6.61       0.22
