12

C      -3.08      11.58       2.51
C      -3.62      11.61       1.13
C      -5.28      11.65      -0.29
N      -4.99      11.60       1.02
O      -0.67      11.55      -0.20
O      -1.83      11.55       2.74
H      -6.29      11.67      -0.68
N      -4.17      11.70      -1.04
C      -3.10      11.67      -0.18
O      -3.96      11.58       3.45
C      -1.76      11.66      -0.85
O      -1.77      11.73      -2.12
