36

C      -1.94      10.32      20.10
C      -1.79       9.29      21.02
C      -7.36      10.96      14.59
C      -6.25      10.94      15.41
C      -5.43      12.07      15.47
C      -5.80      13.20      14.72
C      -6.93      13.14      13.93
C      -4.23      12.09      16.32
C      -3.02      11.22      18.03
H       0.84      16.02      18.86
H      -0.65      13.99      18.99
C      -2.38      13.17      17.07
H      -2.13      15.01      15.07
C      -2.79      10.14      19.01
H      -0.58      17.01      15.10
N       0.18      16.57      16.98
H      -3.67       6.92      19.73
H      -4.09       8.72      18.01
H      -1.43      11.27      20.24
H      -1.18       9.40      21.91
N      -7.70      12.04      13.85
N      -4.09      11.11      17.22
N      -2.17      12.25      18.03
N      -3.37      13.11      16.16
H      -8.03      10.10      14.50
H      -5.99      10.05      15.98
H      -5.19      14.10      14.77
H      -7.26      13.99      13.32
N      -2.40       8.10      20.86
C       0.16      15.75      18.05
C      -0.65      14.63      18.11
C      -1.48      14.34      17.02
C      -1.47      15.20      15.92
C      -0.63      16.30      15.93
C      -3.20       7.91      19.80
C      -3.43       8.90      18.86
