44

C       3.89      11.60      11.86
C       7.60      10.17      15.90
N       8.53       4.27      15.48
N       1.55      16.59      16.06
H       3.84       9.49      14.03
H       7.68      12.53      13.79
H       4.68      11.24      16.11
H       6.82      10.79      11.72
N       7.48       3.78      14.80
N       2.59      17.35      16.44
O       9.84       7.56      15.93
O      10.44       5.52      16.71
O       1.44      13.44      14.33
O      -0.04      14.42      15.75
O       2.96      10.88      11.53
O       4.18      12.77      11.23
O       7.27       9.67      16.97
O       8.86      10.14      15.39
H       5.97       4.62      13.56
H      -0.52      13.60      15.51
H       4.70      17.24      16.18
H      11.09       6.09      17.17
H       3.49      12.90      10.54
H       9.35       9.43      15.86
C       8.58       5.61      15.30
C       2.01      15.52      15.38
C       5.16      11.12      15.14
C       6.36      10.89      12.71
C       4.69      10.17      13.99
C       6.83      11.85      13.84
C       7.10       7.29      14.04
C       4.26      14.61      14.76
C       6.65      10.73      14.91
C       4.85      11.31      12.95
C       6.18       9.72      13.75
C       5.34      12.31      14.10
C       6.67       8.39      13.75
C       4.83      13.60      14.37
C       6.85       4.79      14.17
C       3.73      16.79      15.98
C       7.50       6.01      14.45
C       3.42      15.61      15.29
C       9.63       6.36      15.96
C       1.16      14.38      15.06
