22

C       6.89       8.86       9.65
H       5.33       9.32      12.49
H       8.49      14.96      15.48
N       9.38       9.57      11.51
N       7.99      11.05      12.46
H       7.62       8.90       8.84
N       5.70       8.26       9.47
N      10.41      14.20      15.70
N       4.98       8.38      10.63
H      12.28      13.31      15.77
N      10.15      10.33      12.34
H       7.77      13.22      13.82
H      11.74      11.55      14.08
C       9.28      11.21      12.88
C       9.17      14.18      15.15
C       9.69      12.23      13.83
C       8.09      10.02      11.61
C       8.78      13.22      14.24
C      11.30      13.26      15.30
C       6.97       9.37      10.95
C      10.99      12.28      14.38
C       5.73       9.06      11.52
