16

O      13.19       9.36      13.03
H       8.46       8.58      12.24
C       8.86       9.81      10.52
C      11.16      10.56      10.27
O      10.34      12.02       7.99
C      12.95       9.90      11.90
C       9.22       9.14      11.69
H      10.81       8.69      13.08
O       8.23      11.35       8.23
C       9.47      11.33       8.61
H      11.91      11.12       9.72
C      10.53       9.19      12.15
H       7.84       9.79      10.14
O      13.80      10.44      11.13
C       9.83      10.54       9.81
C      11.52       9.89      11.44
