40

C       4.43      20.93       6.32
C       2.27      19.80       5.74
H       4.02      20.51       8.44
C       2.39      18.85       6.96
C       4.02      17.08       9.47
H       3.87      21.85       6.54
C       3.67      20.17       5.20
H       1.69      19.33       4.93
C       4.52      20.04       7.58
H       1.73      20.71       6.00
H       1.86      19.26       7.83
C       3.88      18.65       7.32
C       4.61      18.00       6.11
H       1.94      17.87       6.75
C       4.45      18.88       4.85
H       3.90      18.35       4.06
H       5.67      17.86       6.37
C       3.99      17.81       8.49
C       3.55      21.02       4.03
H       4.19      16.99       5.95
C       3.47      21.73       3.05
C       6.17      22.60       6.18
C       5.49      23.71       5.39
C       6.05      25.08       5.79
H       5.43      19.16       4.44
O       5.16      15.83      11.04
O       2.88      15.93      11.10
H       7.25      22.61       5.97
H       6.04      22.76       7.27
H       5.64      23.53       4.32
O       2.29      22.82       1.37
H       4.40      23.69       5.57
H       6.00      25.23       6.88
H       5.50      25.89       5.32
O       4.56      23.01       1.48
H       5.58      19.90       7.84
H       7.11      25.18       5.49
O       5.73      21.28       5.83
C       3.43      22.59       1.89
C       4.02      16.21      10.62
