16

O       2.42      -0.89       5.41
O       0.15      -0.88       5.35
H      -0.70       1.37       6.19
H       3.29       1.31       4.60
H      -0.60       3.87       6.27
O       0.21       6.04       5.62
C       1.36       5.49       5.61
C       1.29      -0.31       5.39
C       1.39       4.00       5.49
C       1.30       1.19       5.41
C       2.48       3.26       4.98
C       0.19       1.91       5.87
C       2.44       1.87       4.97
C       0.25       3.29       5.91
Cl       3.88       4.00       4.29
O       2.47       6.10       5.71
