30

H       2.58       9.65      13.17
O       3.49       8.76      11.07
O       1.95       9.79      15.78
O       3.43       6.23      24.63
O       3.30       6.50      10.95
O       2.55       8.31      24.78
O       3.06       5.06      19.72
H       3.38       4.35      20.31
H       1.93      10.55      15.17
H       1.65       9.35      20.12
H       2.91       5.37      15.67
H       1.95       9.31      22.61
H       3.35       5.43      13.20
H       3.35       5.27      22.39
C       3.29       7.61      11.58
C       2.91       7.28      24.12
C       2.02       8.46      20.63
C       2.82       6.30      15.11
C       2.19       8.44      22.01
C       3.07       6.33      13.74
C       2.68       7.29      22.64
C       2.33       7.33      19.84
C       2.99       7.55      13.05
C       2.97       6.16      21.88
C       2.62       8.71      13.73
C       2.79       6.16      20.50
C       2.33       8.68      15.09
C       2.45       7.46      15.82
C       2.25       7.37      18.43
C       2.28       7.43      17.21
