16

O       9.26       5.57      13.13
O       9.21      -1.75       8.53
O       9.28      -3.02      10.43
O       9.34       4.31      15.04
C       9.25      -1.91       9.80
S       9.29       1.72      13.83
S       9.25       0.84       9.74
Br       9.26       4.42      10.28
Br       9.28      -1.86      13.30
C       9.27       3.07      11.59
C       9.27      -0.51      11.99
C       9.29       3.24      12.97
C       9.26      -0.68      10.61
C       9.28       0.85      12.35
C       9.27       1.70      11.23
C       9.30       4.46      13.77
