58

O       4.32      11.83       8.93
O       2.42      24.73      10.21
O       2.69      11.66      10.53
O       0.98      24.70       8.44
H       3.06      23.89       6.81
H       4.83      23.95       6.61
H       3.94      22.44       6.29
H       4.28      23.79       9.05
H       5.13      22.34       8.51
H      -0.81      13.65       8.29
H      -1.51      19.86       8.05
H      -0.44      18.45       8.12
H      -1.99      18.42       8.98
H      -0.13      18.81      10.58
H      -1.19      20.22      10.53
H      -2.41      22.83       9.51
H       7.46      13.53      10.39
H       6.18      19.72       8.70
H       4.37      17.76      12.19
H       5.23      16.28      12.68
H       6.13      17.79      12.42
H       6.46      16.32      10.43
H       1.18      16.31       8.86
H       5.51      17.76      10.00
C       3.44      12.29       9.72
C       3.32      13.79       9.70
C       4.42      14.56      10.09
C       1.73      24.16       9.32
C       4.38      15.97      10.06
C       3.04      22.05       8.92
C       3.10      20.65       8.95
C       1.82      22.66       9.28
C       4.18      22.90       8.41
C       3.99      23.32       6.95
C       1.97      19.89       9.33
C       1.03      13.59       8.69
C      -0.47      19.63       9.95
C      -1.15      19.06       8.70
C      -0.58      22.66       9.91
C       0.72      20.50       9.60
C       5.61      13.81      10.63
C       4.33      19.97       8.40
C       5.50      16.83      10.57
C       5.29      17.18      12.06
C       0.67      21.90       9.56
C       2.07      15.80       9.22
C       2.14      14.41       9.25
C       3.17      16.57       9.62
N       1.99      18.49       9.46
N       3.15      17.98       9.57
O       1.15      12.48       8.21
O      -0.17      14.24       8.74
O      -0.62      23.58      10.71
O      -1.68      22.25       9.21
O       5.55      13.02      11.55
O       6.77      14.08       9.96
O       4.39      19.48       7.28
O       5.43      20.10       9.21
