20

H      10.50      10.58       7.76
O      14.36       8.10      10.07
O       7.68      10.23       9.11
O       7.65       7.98       9.45
O      14.44      10.36      10.34
H      11.58       7.81      11.66
C      13.83       9.25      10.17
C       8.24       9.10       9.29
C      11.72       8.74       8.64
C      10.34       9.64      10.79
C      10.69       7.89       9.45
C      11.38      10.49       9.97
C      10.75       9.97       8.63
C      11.32       8.41      10.79
H      12.33       8.39       7.80
C       9.71       9.11       9.43
C      12.36       9.27       9.98
H       9.73       9.99      11.63
H      10.38       6.87       9.24
H      11.67      11.52      10.19
