27

C      11.84       5.25      17.80
C      11.34       6.34      14.92
C      11.15       4.55      16.79
H      14.43       3.71      20.64
H      10.27       2.65      16.30
H      12.71       5.19      19.76
H      12.08       6.31      17.66
H      12.23       6.90      15.19
C       9.68       4.90      14.72
C      12.13       1.43      21.11
C      12.48       2.60      20.41
H       8.94       4.11      14.83
C      10.71       1.14      18.43
N      14.15       1.95      21.79
N      10.61       6.69      13.83
H      10.30       0.74      17.49
H      11.56       0.51      18.74
H       9.93       1.03      19.20
N       9.58       5.80      13.71
H      11.20       0.86      21.10
N      13.14       1.04      21.92
C      13.76       2.89      20.91
C      10.77       5.21      15.54
C      10.80       3.23      17.07
C      11.12       2.58      18.26
C      11.87       3.27      19.25
C      12.18       4.62      18.99
