32

H       3.47       8.79      14.31
H       4.24      10.10      13.43
H       3.63       7.42      12.39
H       6.37      10.54      13.49
H       6.62       9.45      11.48
H       7.83       8.36      12.18
H       7.26       6.55      13.47
C       5.89       6.78      10.97
C       4.33       9.04      13.71
C       4.40       8.20      12.43
C       5.78       7.33      14.80
C       6.67       9.50      13.66
C       5.60       8.87      14.57
C       5.80       7.60      12.26
C       6.16       6.68      13.45
C       6.81       8.75      12.31
C       5.48       9.70      15.88
N       6.80       6.90      15.90
N       4.43       6.70      15.37
N       8.01       9.62      14.30
O       7.05       6.57      10.49
O       4.78       6.38      10.51
O       4.35       9.76      16.44
O       6.53      10.29      16.24
O       6.84       7.59      16.92
O       7.42       5.86      15.68
O       3.57       6.45      14.54
O       4.37       6.49      16.58
O       8.63      10.68      14.17
O       8.43       8.60      14.86
F       4.15       9.06      11.31
F       5.62       5.40      13.32
