13

O       9.67       7.12       9.49
C       5.70       6.55      13.82
C       8.06       7.47      11.14
C       8.87       6.55      10.26
C       6.51       7.47      12.94
O       7.28       6.69      12.04
H       5.83       8.14      12.37
H       8.73       8.14      11.70
H       7.16       8.09      13.58
O       5.91       5.28      13.71
H       7.40       8.09      10.50
O       8.66       5.28      10.37
O       4.89       7.12      14.59
