15

C       3.92      11.48       5.55
O       4.75      10.61       3.04
O       7.83      13.55       7.88
C       3.57      11.91       6.83
H       7.12      12.63       5.56
C       6.61      13.46       8.16
C       5.57      11.36       3.65
H       3.21      10.94       4.93
N       4.43      12.57       7.62
H       2.58      11.73       7.24
C       5.20      11.75       5.07
C       5.68      12.79       7.17
O       6.06      13.85       9.24
C       6.10      12.41       5.90
O       6.65      11.84       3.19
