12

C       4.72       3.57       5.77
C       5.55       2.54       5.01
H       6.04       3.03       4.15
H       5.03       0.91       3.67
C       4.57       1.46       4.51
H       3.62       1.87       4.14
C       4.23       0.44       5.59
O       4.66       3.36       7.03
O       6.50       1.96       5.85
O       4.45       0.62       6.83
O       3.70      -0.62       5.11
O       4.09       4.49       5.16
