20

H       7.90       6.46       7.56
H       6.71       2.42       8.50
H       7.34       6.07       5.17
H       6.15       2.03       6.11
C       8.64       5.27      11.93
C       6.53       3.00       6.43
C       6.84       3.21       7.76
C       7.34       4.46       8.19
C       6.71       4.03       5.48
C       5.47       3.21       1.71
C       8.02       4.90      10.70
C       7.52       5.49       7.23
C       6.38       3.80       4.12
C       7.21       5.28       5.90
C       7.69       4.69       9.54
C       6.06       3.58       2.96
O       5.73       2.04       1.26
O       8.38       6.45      12.37
O       9.45       4.45      12.47
O       4.67       4.05       1.16
