24

H       5.76      15.32       2.89
O       7.51      14.75       7.83
O       8.58      13.85       6.04
H       7.43      16.94       5.67
H       6.91      12.45       4.82
H       5.13      10.78       4.33
H       2.73      11.40       4.56
H       2.12      13.71       5.28
H       3.89      15.38       5.76
C       5.84      16.94       4.20
C       5.48      16.36       3.04
C       6.65      16.30       5.23
C       6.56      15.02       5.65
C       4.67      16.96       1.95
C       7.64      14.51       6.57
C       5.52      14.03       5.31
C       5.86      12.72       4.92
C       4.86      11.79       4.64
C       3.51      12.14       4.76
C       3.16      13.43       5.17
C       4.16      14.37       5.44
I       5.26      18.91       4.72
O       3.70      16.24       1.51
O       5.00      18.11       1.52
