69

H       5.62       2.93       1.26
H       4.41      -0.96       2.67
H       3.59       0.21      -1.39
H       3.96       3.91      -4.30
H       3.30       1.90      -2.76
H       4.98       5.61      -5.23
H       5.89       7.76      -6.11
H       8.02       8.38      -2.44
H       7.04       6.30      -1.50
H       7.73       2.93       5.54
H       6.83       3.13       3.10
H       8.10       2.34       7.66
H       8.81       1.41       9.85
H       6.52      -2.13       9.11
H       5.85      -1.27       6.89
H       1.53      -4.52       1.40
H       2.85      -2.53       2.44
H       0.35      -5.83       0.06
H      -0.81      -7.35      -1.52
H       0.68      -5.08      -4.84
H       1.84      -3.54      -3.29
C       4.63       1.67      -0.19
C       5.15       1.96       1.08
C       5.08       1.02       2.12
C       4.45      -0.21       1.88
C       3.88      -0.50       0.63
C       4.00       0.44      -0.40
C       4.73       2.63      -1.28
C       5.37       4.56      -2.77
C       4.41       3.72      -3.33
C       4.06       2.64      -2.49
C       5.95       5.78      -3.31
C       5.64       6.21      -4.62
C       6.16       7.40      -5.12
C       7.02       8.18      -4.34
C       7.35       7.76      -3.04
C       6.80       6.59      -2.53
C       7.61       9.43      -4.87
C       5.69       1.30       3.42
C       6.56       1.10       5.77
C       7.02       2.23       5.10
C       6.53       2.34       3.79
C       6.93       0.60       7.10
C       7.75       1.35       7.96
C       8.15       0.84       9.19
C       7.71      -0.42       9.61
C       6.87      -1.16       8.77
C       6.49      -0.67       7.53
C       8.16      -0.99      10.91
C       3.17      -1.76       0.42
C       1.86      -3.66      -0.58
C       1.97      -3.73       0.81
C       2.71      -2.66       1.37
C       1.19      -4.56      -1.49
C       0.43      -5.65      -1.01
C      -0.22      -6.51      -1.89
C      -0.13      -6.31      -3.28
C       0.61      -5.23      -3.77
C       1.26      -4.37      -2.89
C      -0.84      -7.22      -4.21
S       5.83       3.97      -1.20
S       5.49       0.21       4.75
S       2.70      -2.26      -1.16
O       8.65       9.91      -4.32
O       7.09       9.98      -5.92
O       7.62      -2.10      11.32
O       9.09      -0.43      11.57
O      -0.50      -7.23      -5.46
O      -1.79      -7.95      -3.79
