41

C      -4.28       0.26      15.92
C      -3.33       0.63      18.20
C      -3.88       1.09      17.05
C      -4.32      -1.27      13.52
H      -3.72      -4.19      12.93
H      -0.60       3.99      19.96
H      -4.22      -2.98      14.85
H      -4.61       0.64      12.54
H      -3.93       2.16      16.87
H      -3.15      -0.17      20.68
H      -4.20      -1.67      16.91
H      -1.93       0.83      22.57
H      -3.35      -0.45      18.37
C      -1.78       3.25      17.72
H      -4.56       1.96      14.61
N      -3.02      -3.61      11.03
N      -2.98      -2.45      10.33
H      -3.60      -0.47      10.70
H      -0.10       5.27      21.95
N       0.69       3.39      24.46
H      -0.08       1.47      24.02
N       0.68       4.60      23.80
H      -0.92       3.93      17.72
H      -1.66       2.53      16.91
H      -2.67       3.86      17.49
C       0.03       4.43      22.63
C      -0.42       3.11      22.51
C      -3.59      -3.38      12.22
C      -3.94      -2.01      12.32
C      -3.54      -1.48      11.08
C       0.03       2.50      23.69
C      -1.18       2.51      21.41
C      -1.20       3.10      20.14
C      -1.91       2.57      19.06
C      -2.64       1.36      19.25
C      -2.60       0.76      20.53
C      -1.91       1.32      21.59
C      -4.28      -1.15      15.95
C      -4.30      -1.90      14.79
C      -4.51       0.12      13.49
C      -4.49       0.87      14.67
