20

C       6.02      10.85      18.57
H       3.96      10.79      19.31
C       6.32       9.43      18.86
H       8.38       9.49      18.12
C       4.77      11.39      18.89
H       5.05      14.55      18.04
C       7.57       8.89      18.54
H       7.29       5.73      19.39
C       5.36      13.51      18.15
H       7.32      13.72      17.28
C       6.98       6.77      19.29
H       5.01       6.56      20.16
C       6.61      13.06      17.76
H       7.92      11.38      17.63
H       4.42       8.90      19.80
C       5.73       7.22      19.67
C       6.94      11.72      17.97
C       5.40       8.56      19.47
N       4.45      12.68      18.68
N       7.89       7.60      18.75
