19

H      23.05       5.93      11.46
H      20.57       9.43      11.46
H      24.64       7.09      13.01
C      21.98      11.01      13.07
H      22.68      11.74      12.64
H      22.03      11.16      14.16
H      20.97      11.24      12.72
O      24.39      10.73      14.36
O      25.47       8.73      14.41
C      24.53       9.50      14.02
O      20.96       5.74      10.14
C      20.75       6.97      10.44
O      19.78       7.69      10.02
C      23.51       8.91      13.10
C      21.71       7.63      11.36
C      22.35       9.61      12.67
C      22.86       6.95      11.80
C      21.47       8.93      11.80
C      23.74       7.60      12.65
