20

N       1.87       8.40      13.34
N      -5.23       8.52      13.34
H       1.77       9.70      11.73
H      -0.71       9.73      11.64
H      -0.70       7.00      14.99
H       1.78       7.03      14.89
H      -2.58      10.44      12.55
H      -5.08      10.41      12.53
H      -5.21       6.63      14.16
C       1.18       9.12      12.44
H      -2.71       6.45      14.20
C      -0.21       9.14      12.40
C      -0.94       8.39      13.34
C      -0.21       7.61      14.24
C       1.19       7.63      14.20
C      -2.42       8.43      13.36
C      -3.11       9.56      12.90
C      -4.50       9.56      12.89
C      -3.19       7.36      13.84
C      -4.57       7.44      13.82
