36

H       8.10       6.99       5.57
H       8.09      11.27      -5.57
H       8.08       6.98       3.07
H       8.10      11.29      -3.07
H       8.15      11.28       5.57
H       8.04       6.99      -5.57
H       9.65      10.61      -1.25
H       6.54       7.66       1.25
H       8.14      11.29       3.07
H       8.05       6.98      -3.07
H       9.67      10.61       1.23
H       6.52       7.66      -1.23
C       8.04       9.13      -7.21
C       8.15       9.14       7.21
C       8.09       7.93       3.62
C       8.10      10.34      -3.61
C       8.11       9.13       2.89
C       8.07       9.13      -2.89
C       8.15      10.34       3.61
C       8.04       7.93      -3.61
C       8.15      10.34       5.01
C       8.04       7.92      -5.00
C       8.14       9.14       5.72
C       8.05       9.13      -5.71
C       8.96       9.98       0.69
C       7.23       8.29      -0.69
C       8.95       9.98      -0.70
C       7.24       8.29       0.70
C       8.08       9.13      -1.42
C       8.10       9.13       1.42
C       8.11       7.93       5.01
C       8.08      10.34      -5.01
O       8.04      10.27      -7.80
O       8.15       8.00       7.80
O       8.04       8.00      -7.79
O       8.15      10.27       7.80
