20

C      12.86      -0.38      28.28
C      14.89       0.70      26.56
C      13.97       0.29      28.78
C      13.76       0.03      26.04
C      14.96       0.82      27.94
C      12.78      -0.50      26.88
C      14.67       0.76      30.05
C      15.78       1.35      29.10
H      13.68      -0.08      24.96
H      11.92      -1.02      26.45
H      14.11       1.50      30.63
H      15.00      -0.05      30.72
H      16.78       0.90      29.21
H      15.89       2.44      29.12
C      15.93       1.27      25.66
O      16.90       1.87      26.23
O      15.78       1.10      24.40
C      11.80      -0.94      29.17
O      11.97      -0.77      30.42
O      10.82      -1.54      28.61
