35

H      10.78      -0.42      13.48
H      10.20      -1.04      11.95
H       8.05      -0.24      13.91
H       8.07      -0.04      12.17
H      10.40       3.01      12.28
H      11.05       1.40      12.31
H      10.16       0.96      10.21
H       8.52       1.34      10.78
H       9.26       1.38      16.62
H       7.88       1.58      15.59
H       6.36       1.09      12.83
H       4.54       2.75      12.78
H       5.03       5.17      13.14
H       7.38       5.90      13.56
H       9.20       4.23      13.62
N       8.89       1.61      15.70
O       8.55      -2.58      13.99
O      10.79      -2.92      13.74
O      10.62       3.60       9.75
O       8.43       3.21       9.28
O      10.99       1.55      14.83
C       9.72      -2.23      13.62
C       9.90      -0.86      12.99
C       8.69       0.07      13.08
C       9.10       1.56      13.25
C      10.12       1.96      12.16
C       9.55       1.72      10.74
C       9.53       2.94       9.86
C       9.77       1.60      14.66
C       7.92       2.53      13.22
C       6.60       2.14      12.99
C       5.56       3.08      12.96
C       5.83       4.43      13.16
C       7.15       4.84      13.40
C       8.18       3.90      13.42
