13

O      14.56      10.33       2.30
O      13.49      12.16       1.47
C      11.95       8.34       5.72
C      11.56       9.51       4.83
H      10.67       9.24       4.24
H      11.32      10.37       5.48
H      12.15      11.82       3.69
H      11.50      10.69       2.46
C      13.58      11.16       2.22
O      12.65       9.82       3.97
C      12.37      10.91       3.10
O      13.16       7.91       5.64
O      11.04       7.91       6.46
