13

N       1.76      11.12      13.71
H       3.52      10.01      14.21
H       1.86       9.26      12.68
O      -0.85      10.70      13.07
C       1.47      10.27      12.54
H       3.04      11.28      15.37
O       0.66       9.41      15.46
C       1.94       9.48      15.58
O      -0.40       9.48      11.26
C      -0.03      10.14      12.26
O       2.60       8.77      16.39
C       2.66      10.50      14.69
H       1.96      10.65      11.63
