32

C       3.38       2.05       4.61
H       3.16       7.19       5.62
H       1.34       2.46       3.70
C       5.33       2.01       7.57
H       2.69       2.89       2.61
C       6.61       3.80       7.52
H       2.94       1.21       5.18
C       2.29       7.19       2.63
H       4.29       1.69       4.11
H       0.08       4.77       2.89
C       3.15       1.23       8.06
N       0.59       6.32       1.53
H       7.07       4.77       7.35
H       3.13       7.85       2.80
N       6.47       1.72       8.21
H       4.65       5.99       7.15
N       7.28       2.82       8.16
N       1.54       7.29       1.51
H       2.64       2.10       7.61
H       3.28       1.41       9.14
O       4.42       1.00       7.43
H       2.57       0.32       7.89
C       1.84       6.10       3.40
C       5.34       3.34       7.11
C       3.55       3.37       5.36
C       4.33       4.02       6.32
C       4.11       5.42       6.39
C       3.25       6.10       5.52
C       2.53       5.44       4.50
C       2.68       4.05       4.50
C       2.38       2.82       3.66
C       0.75       5.59       2.66
