26

H       9.26       6.14       7.99
H       9.54       6.52      10.28
H      11.57       5.99       8.34
H      11.81       6.98      10.74
H      11.54       9.56       7.28
H      11.83      10.25       8.88
O       7.16       6.95       9.08
O       7.07       9.19       8.74
O      13.97       6.98       8.74
O      13.93       9.19       9.22
H      11.78       7.04       6.94
H      11.53       8.73      10.89
H       9.26       9.96       7.72
H       9.54      10.17       9.44
C       7.69       8.09       8.89
C      13.37       8.09       8.92
C       9.77       7.10       7.83
C       9.80       7.58      10.19
C      11.31       6.98       7.93
C      11.31       7.84      10.27
C       9.78       9.53       8.58
C       9.22       8.13       8.86
C      11.85       8.09       8.84
C      11.30       9.45       8.35
I       9.13       7.57       5.79
I       8.82       8.38      11.99
