12

C       4.17      10.88       4.85
C       4.18      11.85       4.08
C       4.18      12.89       3.24
C       4.17      13.85       2.47
C       4.17      14.95       1.54
O       5.28       7.39       7.80
C       4.14       7.82       7.43
O       3.00       7.40       7.82
O       5.30      15.37       1.17
O       3.02      15.37       1.17
C       4.14       8.90       6.49
C       4.16       9.84       5.70
