16

H      10.01       5.49       9.41
H      11.07       4.51      10.46
H       9.36       4.09      10.29
H       9.69       5.22      12.48
H       8.64       6.15      11.46
C      10.46       7.94      12.78
C       9.68       5.81      11.55
O      12.69       6.60      10.93
H      11.16       8.78      12.82
O       8.59       6.96      13.80
C      10.54       7.04      11.77
C       9.48       7.87      13.88
C      10.06       4.93      10.36
C      11.62       7.26      10.75
O      11.36       8.06       9.80
O       9.60       8.73      14.82
