20

O       5.88      19.22       1.45
H       8.99      15.26       4.33
H       9.05      13.69       6.27
H       5.33      15.33       7.71
H       5.26      16.89       5.78
C       7.29      11.85      10.29
C       8.23      14.39       6.16
C       7.19      14.40       7.12
C       6.12      15.32       6.97
C       6.09      16.19       5.89
C       7.12      16.18       4.93
C       8.19      15.26       5.08
C       7.23      13.52       8.22
C       7.08      17.06       3.83
C       7.05      17.83       2.88
C       7.25      12.76       9.18
C       7.02      18.74       1.77
O       6.18      11.58      10.84
O       8.44      11.41      10.62
O       8.13      18.97       1.19
