28

H       9.72       6.49      12.28
H       9.68       7.21      14.65
H      13.22       4.84      15.37
H       9.56       7.56      19.45
H      12.97       4.80      21.77
H      13.16       5.17      19.30
C      11.07       5.48      23.42
C      11.46       4.98      11.00
C      11.49       5.29      12.46
C      10.49       6.14      12.97
C      10.46       6.54      14.29
C      11.45       6.07      15.18
C      12.46       5.22      14.69
C      12.48       4.84      13.35
C      11.41       6.35      16.57
C      11.38       6.44      17.79
C      11.35       6.36      19.20
C      10.31       6.94      19.95
C      10.20       6.70      21.32
C      11.14       5.89      21.98
C      12.23       5.39      21.23
C      12.33       5.60      19.87
Cl      13.76       3.76      12.88
Cl       8.89       7.49      22.13
O       9.94       5.48      23.99
O      10.32       5.05      10.42
O      12.56       4.75      10.42
O      12.16       5.11      23.96
