16

O      -1.31      27.14      11.05
O      -2.63      28.10      12.58
C      -0.80      26.76      13.37
C       0.80      25.59      15.49
Br      -2.58      28.06      15.29
C      -1.11      26.99      14.74
C      -0.32      26.42      15.77
C       0.33      25.94      13.08
C       1.11      25.37      14.12
Br       0.87      25.54      11.30
Br      -0.87      26.82      17.55
O       2.63      24.26      16.27
O       1.31      25.22      17.80
Br       2.58      24.30      13.56
C      -1.64      27.38      12.25
C       1.64      24.98      16.61
