27

C       7.99       2.81       6.06
C       6.85       2.23       6.82
H       6.95       3.70       8.40
C       6.43       2.82       8.02
H       5.04       2.76       9.67
C       5.35       2.30       8.73
H       4.58      -0.33       6.70
C       4.68       1.18       8.23
C       5.11       0.56       7.05
O       8.62       3.80       6.58
H       6.52       0.62       5.43
C       6.18       1.09       6.35
O       8.28       2.33       4.91
H       2.49      -0.33      11.02
H       0.81       0.88      12.41
C       2.77       1.33       9.67
O       3.64       0.58       8.91
C       2.20       0.69      10.78
H       1.13       4.31       9.83
O      -0.52       2.87      13.12
C       1.27       1.37      11.55
H       2.81       3.10       8.43
O      -0.58       4.52      11.60
C       0.89       2.69      11.22
C       1.45       3.30      10.09
C       2.39       2.63       9.31
C      -0.13       3.41      12.03
