20

C       5.39       7.26       1.17
N       5.90       7.66      -0.03
N       7.09       7.03      -0.26
H       6.45      10.56      -3.52
N       6.23       6.38       1.71
H       2.67      10.56      -1.50
O       4.77      12.25      -4.38
H       3.41       8.69      -0.05
O       2.95      12.44      -3.08
H       7.22       8.68      -2.07
H       8.12       5.64       0.96
H       4.47       7.63       1.61
C       4.06      11.87      -3.40
C       5.79      10.16      -2.75
C       4.52      10.71      -2.57
C       3.67      10.16      -1.60
C       4.10       9.12      -0.78
C       5.40       8.63      -0.93
C       6.23       9.12      -1.94
C       7.25       6.27       0.81
