24

H      13.62      14.73      19.50
H       9.65      12.24      21.09
S      12.39      13.80      17.20
S      11.03      12.94      23.39
O       8.94      11.45      18.97
H      10.41      14.13      16.68
H      11.57      14.88      23.91
O       9.54      12.81      17.27
C       9.67      12.35      18.46
C      13.51      14.77      22.12
O      13.16      15.08      23.31
O      14.64      15.04      21.61
C      10.72      12.95      19.36
C      12.52      14.08      21.23
C      11.87      13.64      18.92
C      11.40      13.34      21.67
C      12.74      14.20      19.85
C      10.52      12.80      20.73
O      11.24      14.69      16.58
O      13.58      14.60      17.17
O      12.38      12.48      16.62
O      10.71      14.38      24.00
O       9.80      12.21      23.42
O      12.23      12.40      23.98
