26

O      13.23      14.63      23.63
H       8.03      17.58      31.08
H       9.67      13.71      31.91
O       8.18      14.55      33.62
H      12.64      17.88      25.87
C       8.11      15.62      32.96
C      12.42      15.77      25.51
H      11.32      17.86      27.98
H      10.68      13.63      27.52
C      12.20      16.95      26.23
C       8.79      15.65      31.63
C      11.45      16.94      27.40
H      12.02      13.66      25.41
C       8.66      16.75      30.77
C      10.91      15.74      27.90
H       9.23      17.65      28.90
C       9.58      14.56      31.23
H      10.90      13.76      29.74
C      11.13      14.56      27.17
C      13.19      15.73      24.23
C      11.86      14.57      25.99
C      10.26      14.60      30.02
C      10.16      15.71      29.17
C       9.34      16.78      29.56
O       7.53      16.71      33.33
O      13.75      16.83      23.85
