12

C      -3.21      14.77      13.73
C      -2.88      13.89      12.71
C      -0.69      14.62      12.76
C      -2.18      15.60      14.20
H       0.33      14.51      12.40
N      -1.63      13.81      12.22
N      -0.93      15.52      13.71
O      -5.54      14.35      13.47
H      -3.64      13.25      12.26
O      -4.77      15.25      15.42
H      -2.36      16.34      14.98
C      -4.63      14.78      14.22
