45

H       0.78      -0.75       6.93
C       1.87      -1.72       4.24
C       2.42      -2.56       3.25
C       3.04      -2.05       2.13
C       3.16      -0.65       1.97
C       2.73       0.19       3.00
C       2.08      -0.33       4.12
C       4.45       1.13      -1.58
C       4.47       1.82      -2.78
C       3.81      -0.12      -1.46
C       3.76       1.28      -3.89
C       3.25      -0.03      -3.79
C       0.44      -3.56       5.29
C       3.30      -0.74      -2.60
C       3.03       3.42      -5.14
C       1.04      -2.29       5.30
H       4.90       1.56      -0.68
H       2.84       1.27       2.88
H       1.67       0.34       4.87
H       2.74      -0.47      -4.65
H       3.41      -2.70       1.34
H       2.86      -1.73      -2.51
H       2.34      -3.64       3.37
C       5.25       3.12      -2.90
C       6.61       3.08      -2.20
C       7.42       4.35      -2.43
N      -0.25      -2.58       7.14
H       0.50      -4.34       4.54
N       3.58      -0.02       0.78
C       3.07       1.57      -6.36
N       3.55      -0.77      -0.24
H       3.09       4.19      -4.38
H       3.21       0.58      -6.78
N      -0.32      -3.73       6.38
N       2.50       3.69      -6.35
N       2.53       2.56      -7.10
H       7.60       4.51      -3.50
H       6.88       5.24      -2.05
H       8.40       4.31      -1.93
H       6.48       2.91      -1.12
H       7.18       2.21      -2.58
H       5.40       3.35      -3.96
H       4.66       3.96      -2.48
C       0.57      -1.72       6.50
C       3.40       2.06      -5.08
