28

C       0.67      -4.99       9.34
H       2.18      -6.49       6.83
H       8.11      -8.41       9.23
C      13.02      -7.19       8.71
H      12.84      -4.05       9.68
H       5.69      -4.65      11.41
H       0.44      -4.58      10.31
H      12.78      -8.23       8.50
C       7.57      -7.60       9.71
C       6.22      -5.48      10.94
C       1.57      -5.95       7.54
C      13.05      -5.05       9.32
C       8.31      -6.52      10.25
C       5.48      -6.49      10.28
C       7.61      -5.49      10.92
C       6.19      -7.58       9.73
C       9.70      -6.42      10.02
N      -0.16      -4.81       8.29
C       1.81      -5.72       8.92
C       4.10      -6.33      10.02
C       2.98      -6.06       9.60
C      10.87      -6.30       9.67
N      14.24      -6.69       8.50
N       0.40      -5.40       7.18
C      12.20      -6.18       9.25
N      14.28      -5.37       8.87
H       5.62      -8.39       9.26
H       8.17      -4.68      11.38
