18

H      14.88      23.04      16.87
N      15.60      22.56      17.39
O      16.61      20.52      18.77
C      17.58      22.70      18.82
C      18.82      24.80      18.89
H      19.36      23.02      19.96
H      15.46      21.60      17.70
C      17.95      26.83      17.68
O      19.02      27.44      18.03
C      17.86      25.38      18.03
H      16.06      25.10      16.90
C      17.49      21.30      19.31
O      16.96      27.35      17.07
C      16.79      24.62      17.56
H      19.66      25.40      19.23
C      16.63      23.26      17.92
O      18.29      20.95      20.24
C      18.66      23.49      19.28
