22

H       9.67      11.73       7.62
H       6.52      21.24      10.19
H       9.80      14.25       7.56
H       6.47      18.72      10.27
H       6.41      14.32      10.25
H       9.87      18.75       7.58
H       6.42      11.80      10.18
H       9.78      21.26       7.65
N       8.05      11.70       8.90
N       8.15      21.32       8.92
C       7.14      13.78       9.65
C       9.11      19.26       8.18
C       7.15      12.39       9.62
C       9.07      20.65       8.21
C       8.97      12.36       8.18
C       7.24      20.64       9.64
C       9.04      13.74       8.15
C       7.21      19.25       9.68
C       8.11      14.49       8.91
C       8.17      18.53       8.93
C       8.14      15.90       8.91
C       8.16      17.12       8.92
