34

N       5.00       2.74       8.79
N      10.33     -10.33      10.10
H       7.05       2.37       8.42
N      11.42     -10.01       9.32
H       7.39      -2.89      12.01
H       6.24      -0.71      11.98
H       7.73       0.02       8.01
H       8.95      -2.13       8.08
H      10.81      -3.45       9.81
H      11.73      -5.75       9.66
H       7.72      -7.32       9.86
H       8.76      -9.21      10.96
C       4.60       1.07      10.15
C       6.15       2.04       8.93
C       5.96       0.94       9.78
C       9.65      -9.20      10.34
C      11.38      -8.69       9.10
C      10.27      -8.10       9.73
C       7.48      -2.25      11.13
C       6.82      -1.02      11.12
C       6.85      -0.20       9.97
C       7.69      -0.60       8.91
C       8.37      -1.81       8.94
C       8.22      -2.68      10.03
C      10.13      -4.31       9.82
C      10.65      -5.60       9.74
C       9.79      -6.71       9.77
C       8.41      -6.48       9.88
C       7.91      -5.19       9.98
C       8.76      -4.06       9.96
Br      12.71      -7.94       7.99
Br       3.53      -0.09      11.17
Br       6.01      -5.00      10.05
N       4.03       2.14       9.55
