16

O      24.17      12.11      16.97
S      21.87      13.32      18.21
S      21.10      13.53      22.33
C      24.34      12.09      18.24
C      23.08      12.63      20.41
C      19.91      14.26      20.14
C      23.23      12.61      19.03
C      19.75      14.27      21.52
C      21.12      13.66      19.72
C      21.87      13.22      20.82
C      18.64      14.80      22.32
O      17.69      15.36      21.69
O      18.75      14.64      23.59
F      23.97      12.14      21.28
F      19.02      14.76      19.27
O      25.37      11.68      18.87
