17

H      23.84      12.30      22.27
O      25.43      11.65      18.91
O      24.31      12.33      17.03
O      18.92      14.86      23.66
C      23.36      12.72      19.12
S      22.01      13.47      18.31
S      21.25      13.67      22.41
C      24.45      12.19      18.30
O      24.15      12.19      21.35
C      23.22      12.72      20.51
H      19.29      14.85      19.56
C      18.81      14.97      22.39
C      19.91      14.42      21.59
C      21.24      13.80      19.81
C      22.01      13.34      20.90
C      20.04      14.42      20.21
O      17.85      15.52      21.75
