18

C       4.34       0.34      10.32
N       9.21       0.63      11.01
H       4.34       0.00      12.97
H      10.01       0.33      11.55
C       6.45       0.11      13.44
H       8.61       0.23      13.61
H       9.30       0.38      10.02
C       6.20      -0.07      14.91
C       6.82       0.47      10.70
O       7.15      -0.05      15.75
C       5.54       0.32      11.21
O       3.18       0.29      10.87
C       7.95       0.44      11.55
O       4.48       0.38       9.05
C       5.35       0.13      12.59
H       6.95       0.62       9.63
C       7.75       0.26      12.93
O       4.97      -0.23      15.28
