29

C       9.89      10.88       3.40
C       7.52      12.26       3.26
H       6.45      11.69       5.69
C       8.42      12.57       4.29
H       6.20       9.96       7.32
C       9.63      11.88       4.33
H       7.76       9.63       9.20
C       8.08      13.54       5.38
H       6.80      11.11       9.43
H       8.49      11.23       8.93
N       7.90      12.86       6.69
H       9.16      10.21       6.53
N       9.00      10.55       2.43
H       7.84       9.67       5.45
O       5.59      13.71       7.84
H       8.24       8.73       6.91
O       4.53      11.76       7.47
H       7.16      10.95       1.56
H      10.82      10.32       3.40
H       6.56      12.77       3.17
H      10.39      12.11       5.08
H       7.15      14.09       5.15
H       8.89      14.27       5.51
C       5.54      12.51       7.41
C       6.78      11.89       6.72
C       7.14      10.53       7.34
C       7.57      10.64       8.81
C       8.15       9.75       6.51
C       7.84      11.25       2.36
