58

H       2.91       1.80       6.35
H       3.12       2.64      -1.62
H       2.72       9.18       3.10
H       1.01       6.42      -1.69
H       0.62       7.21       6.33
H       0.82      -0.11       3.07
H       0.48      -3.10       4.92
H       3.18      -1.27       8.08
H       0.22      10.27       8.06
H       2.92      12.18       4.95
H       0.82       6.36      -5.21
H       3.53       2.71      -5.13
C       1.82      -2.69       6.80
C       2.17       4.52      -5.76
C       1.56      11.73       6.81
C       2.45       0.91       5.91
C       1.87       0.96       4.65
C       2.68       3.47      -2.18
C       2.06       4.53      -1.52
C       1.67       8.08       4.65
C       2.25       9.22       4.08
C       1.48       5.60      -2.22
C       1.46       5.57      -3.61
C       2.15       4.53      -4.32
C       2.79       3.50      -3.57
C       2.27      10.41       4.81
C       1.59      10.49       6.07
C       0.95       9.32       6.58
C       1.05       8.11       5.90
C       1.27      -0.16       4.06
C       1.19      -1.35       4.79
C       1.84      -1.45       6.07
C       2.51      -0.30       6.60
C       1.79       4.52       4.00
C       1.94       3.30       1.88
C       1.87       2.24       3.91
C       1.73       6.81       3.91
C       1.86       5.75       1.89
C       1.99       4.53      -0.05
N       1.86       4.52       2.59
N       1.90       2.16       2.56
N       1.83       3.36       4.65
N       1.69       5.68       4.65
N       1.83       6.89       2.57
N       2.04       3.33       0.55
N       1.89       5.73       0.55
O       0.65      11.94       7.71
O       0.91      -3.58       6.55
O       1.27       5.19      -6.42
O       2.47      12.63       6.56
O       3.09       3.85      -6.39
O       2.72      -2.91       7.72
O       0.53      -2.38       4.24
O       3.16      -0.33       7.78
O       0.27       9.33       7.75
O       2.91      11.47       4.26
O       0.82       6.58      -4.25
O       3.47       2.49      -4.16
