26

H       4.97      15.25      12.09
H       4.78      16.98      13.88
H       0.91      15.51      14.97
H      -0.96      11.94      12.20
H      -0.04      11.03      11.14
H      -0.32      14.00      14.74
H      -0.62      12.43      14.19
C       2.36      11.29      10.33
C       2.20      12.33      11.39
C       2.82      16.30      14.52
C       4.09      15.30      12.73
C       3.99      16.25      13.71
C       1.79      15.40      14.34
C       1.89      14.36      13.37
C       3.07      14.33      12.55
C       3.18      13.29      11.60
C       1.00      12.41      12.18
C       0.88      13.38      13.19
C       2.74      17.32      15.61
N      -0.06      11.51      12.03
N      -0.30      13.37      13.95
O       1.28      10.89       9.78
O       3.52      10.88      10.03
O       1.58      17.67      16.02
O       3.85      17.75      16.05
F       4.30      13.30      10.82
