34

N      -3.04       8.76      13.14
H      -5.56      -0.13       4.48
H      -5.12       3.47       2.11
H      -2.90       5.58      13.56
H      -2.57       2.93       9.65
H      -2.30       4.27      11.68
H      -2.22       7.85       9.28
H      -2.52       6.51       7.26
H      -2.03       5.00       5.63
H      -3.08       3.88       3.70
H      -5.36       1.40       6.38
H      -4.32       2.52       8.31
H      -2.43       9.16      11.16
C      -2.48       7.01      11.85
C      -5.58       0.66       3.73
C      -5.34       2.48       2.51
C      -2.85       6.58      13.14
C      -5.01       1.94       3.77
C      -2.51       4.01       9.56
C      -2.35       4.78      10.71
C      -2.31       6.18      10.65
C      -2.28       6.77       9.37
C      -2.44       6.01       8.22
C      -2.63       4.61       8.30
C      -2.77       4.22       5.80
C      -3.36       3.59       4.71
C      -4.31       2.56       4.89
C      -4.61       2.17       6.21
C      -4.01       2.80       7.30
C      -3.10       3.85       7.12
C      -2.61       8.41      11.92
N      -6.19       0.45       2.54
N      -6.04       1.59       1.79
N      -3.19       7.64      13.89
