28

H       2.73       2.37       3.49
H       2.94       6.83       8.16
H       2.99       8.86       9.64
H       6.49       3.63       1.83
H       6.47       5.62       3.36
C       4.79      10.72       9.80
C       4.78       9.65       8.75
C       5.75       9.49       7.73
C       5.69       8.38       6.86
C       4.67       7.41       7.04
C       3.71       7.59       8.05
C       3.75       8.70       8.87
C       3.62       4.10       4.44
C       3.56       3.07       3.50
C       4.67       5.04       4.37
C       4.60       2.89       2.57
C       5.68       3.79       2.54
C       5.68       4.88       3.40
C       4.54       1.78       1.57
I       2.04       4.19       5.83
I       7.20       8.11       5.41
I       7.19      11.00       7.41
N       4.52       6.19       6.33
N       4.80       6.24       5.11
O       3.65      11.13      10.19
O       5.91      11.09      10.28
O       3.39       1.30       1.31
O       5.64       1.43       1.05
