16

C      13.03       1.12      21.70
F      14.00       1.65      19.58
O      11.52       2.48      20.52
O      16.30      -2.48      23.00
C      14.78      -1.12      21.82
C      13.03       0.26      22.81
C      14.78      -0.26      20.72
C      15.71      -2.30      21.89
C      13.89      -0.83      22.87
F      13.81      -1.65      23.94
C      13.92       0.84      20.66
F      12.17       0.45      23.83
C      12.10       2.30      21.64
O      15.80      -3.00      20.84
O      12.01       3.00      22.69
F      15.64      -0.45      19.70
