16

C      30.79      17.48      27.65
O      26.48      19.55      30.83
C      29.69      20.45      29.32
S      32.04      19.76      27.76
S      28.44      18.17      29.21
C      33.05      17.57      26.41
O      34.01      18.38      26.16
C      31.96      18.11      27.22
O      32.96      16.35      26.04
C      27.44      20.36      30.56
F      30.47      16.21      27.37
F      30.02      21.72      29.59
O      27.53      21.58      30.93
C      28.53      19.82      29.75
C      30.53      19.60      28.56
C      29.96      18.33      28.42
