35

N       1.85       7.80       8.09
N      -3.33      21.35      10.35
H       0.13       8.47       7.05
H      -0.96      15.87       5.47
H       1.57      14.92       6.34
H      -2.21      13.68       6.77
N      -3.91      21.63       9.14
H      -2.46      15.25       9.12
H       0.07      14.29      10.00
H       1.32      16.49       8.69
H      -1.89      19.95      11.01
H      -3.74      20.81       7.19
H       4.07      11.30       8.81
H       2.86      11.50      10.08
H       4.13      10.25      10.24
C      -2.47      19.92       8.84
C       2.57       9.77       8.84
C       1.00       8.74       7.65
C       1.40      10.02       8.08
C       0.67      15.01       6.97
C      -0.73      15.51       6.48
C      -1.83      18.78       8.31
C       0.84      11.29       7.86
C       0.54      15.85       8.27
C      -0.87      16.39       7.79
C      -0.16      14.66       9.00
C      -0.02      13.77       7.69
C      -1.56      15.15       8.51
C      -1.43      14.31       7.20
C      -1.34      17.72       7.97
C       0.43      12.43       7.72
C      -2.46      20.34      10.18
C      -3.39      20.78       8.22
C       3.45      10.75       9.53
N       2.81       8.45       8.82
