54

O       1.13       8.22      11.09
O       2.99       7.10      10.44
O       1.27       7.16      -2.44
O       3.18       8.20      -3.04
H       2.05      12.80       1.86
H       2.09       9.07       4.00
H       1.98      12.79       6.16
H       3.24      14.64       2.27
O       0.96      19.33       3.41
H       0.85      11.53       0.45
H       3.43       8.53       2.23
H       3.30       8.50       5.78
H       0.76      11.53       7.55
O       2.87      19.33       4.61
H       0.66      14.61       5.75
O       0.47      17.16       5.96
O       3.37      17.19       2.05
O       0.76      10.45      -1.87
O       3.65       7.09       0.12
O       3.48       7.06       7.87
O       0.61      10.45       9.84
H       0.01      17.94       5.60
H       3.84      17.97       2.41
H       0.29       9.75      -2.37
H       4.12       7.01      -0.73
H       3.50       6.77       8.81
H       0.61       9.78      10.57
C       2.06       7.98      10.21
C       2.22       7.99      -2.21
C       1.92      18.72       4.01
C       2.09      10.85       2.79
C       2.04      12.25       2.81
C       1.98      12.96       4.01
C       1.97      12.25       5.22
C       2.03      10.84       5.23
C       2.09      10.16       4.01
C       2.66      16.54       3.03
C       2.64      15.15       3.02
C       1.96      14.44       4.01
C       1.25      15.14       5.00
C       1.20      16.53       4.98
C       1.92      17.24       4.00
C       1.46      10.63       0.39
C       1.46       9.93      -0.82
C       2.21       8.74      -0.93
C       2.92       8.25       0.18
C       2.85       8.92       1.40
C       2.14      10.12       1.50
C       2.72       8.89       6.61
C       2.77       8.21       7.82
C       2.05       8.69       8.96
C       1.32       9.92       8.82
C       1.34      10.62       7.62
C       2.03      10.10       6.51
