42

H       7.11       5.33      11.86
H       7.11       9.39      18.77
H       7.21       9.62      12.00
H       7.22       5.10      18.64
H       6.47      11.91      14.50
H       6.49       2.81      16.14
H       9.35      12.17      16.00
H       9.36       2.56      14.64
C       7.41       9.80      16.07
C       7.42       4.92      14.56
C       7.02       7.22      20.32
C       7.01       7.50      10.31
C       7.17       6.24      12.45
C       7.17       8.48      18.18
C       7.11       7.47      11.81
C       7.12       7.25      18.83
C       7.20       8.67      12.52
C       7.20       6.05      18.11
C       7.27       8.65      13.92
C       7.28       6.07      16.71
C       7.31       7.39      14.61
C       7.31       7.33      16.03
C       7.32       6.17      13.85
C       7.31       8.55      16.79
C       7.32       9.87      14.70
C       7.33       4.85      15.93
C       7.18      11.20      14.00
C       7.20       3.52      16.63
S       7.71      11.28      17.06
S       7.73       3.44      13.57
O       7.99       6.70      20.96
O       5.98       7.00       9.75
O       7.99       8.02       9.67
O       5.98       7.72      20.88
O       7.72      11.49      12.95
O       7.75       3.24      17.68
O       6.46      11.86      17.43
O       8.73      10.96      18.03
O       8.38      12.30      16.00
O       6.48       2.86      13.19
O       8.75       3.76      12.61
O       8.39       2.42      14.64
