32

N      10.33       0.31      15.31
N       8.03      -0.97      14.57
N      10.28      -1.01      15.35
N       8.07       0.36      14.53
Cl       9.14       5.74      16.73
Cl       9.73      -5.61      11.59
Cl       9.15      -6.42      16.88
Cl      10.06       4.92      11.49
Cl       8.90       2.66      17.19
Cl       9.54      -2.49      12.04
Cl       8.86      -3.31      17.32
Cl       9.82       1.80      11.95
O       8.57       7.23      13.77
C       9.69       6.66      13.93
O      10.71      -7.81      13.92
O      10.84       7.20      13.95
O       8.44      -7.95      14.01
C       9.55      -7.33      14.04
C       9.36       4.66      15.42
C       9.52      -4.97      13.16
C       9.25      -5.33      15.55
C       9.77       4.29      13.06
C       9.24       3.28      15.62
C       9.42      -3.59      13.37
C       9.14      -3.95      15.75
C       9.64       2.90      13.26
C       9.39       2.40      14.54
C       9.23      -3.07      14.66
C       9.62       5.17      14.14
C       9.44      -5.84      14.26
C       9.18      -1.61      14.85
C       9.27       0.94      14.76
