17

C      15.11       3.30       4.93
C      13.24       2.14       3.19
H      16.87       4.40       3.72
C      15.28       3.41       3.52
C      13.06       2.03       4.58
C      14.34       2.82       2.67
C      13.99       2.60       5.43
C      16.07       3.90       5.87
O      15.86       3.78       7.12
O      11.26       0.89       2.79
O      12.47       1.64       1.00
O      17.09       4.52       5.36
O      16.32       4.06       2.96
H      12.20       1.49       4.97
H      14.47       2.91       1.59
H      13.87       2.53       6.51
C      12.25       1.51       2.26
