36

H       4.22      -5.94      19.74
H       4.09      -3.88      18.35
H       8.39      -3.84      18.05
H       8.50      -5.89      19.47
H       7.97      -1.61      18.05
H       7.84       0.42      16.66
H       4.19      -1.04      14.88
H       4.33      -3.06      16.27
H       3.77       1.20      14.88
H       3.67       3.24      13.46
H       7.95       3.30      13.19
H       8.07       1.23      14.58
C       5.75       4.60      12.37
C       5.12      -5.47      19.36
C       5.06      -4.32      18.58
C       6.23      -3.71      18.10
C       7.47      -4.29      18.44
C       7.54      -5.43      19.22
C       6.36      -6.03      19.70
C       7.15      -1.50      17.34
C       7.07      -0.35      16.56
C       6.01      -0.15      15.67
C       5.01      -1.14      15.59
C       5.09      -2.29      16.38
C       6.16      -2.49      17.27
C       4.69       1.64      14.50
C       4.63       2.79      13.71
C       5.80       3.39      13.24
C       7.04       2.82      13.57
C       7.10       1.68      14.35
C       5.93       1.07      14.83
C       6.41      -7.25      20.56
O       6.87       5.07      11.99
O       4.60       5.07      12.07
O       5.29      -7.72      20.95
O       7.56      -7.72      20.86
