32

C       8.31      -5.08      10.74
H       8.33      -1.84       7.98
C       6.67      -1.62      10.03
H       8.61      -2.45      10.30
C       6.77      -2.59       6.17
H       6.43      -4.54       9.81
C       4.93       0.48       7.41
H       6.72      -3.81      11.38
C       5.17      -0.82       6.98
H       9.10      -4.61      11.35
C       6.41      -1.15       6.45
H       8.77      -5.48       9.83
C       7.35      -0.13       6.28
H       7.90      -5.93      11.30
C       7.04       1.16       6.71
H       7.00      -0.67       9.58
N       6.95      -3.35       7.44
H       6.54      -1.45      11.11
N       5.87       1.45       7.30
H       5.67      -1.85       9.62
H       5.98      -3.09       5.60
H       7.71      -2.65       5.60
H       3.99       0.78       7.86
O       9.29      -4.73       7.35
H       4.37      -1.56       7.10
O      10.35      -3.25       8.68
H       8.33      -0.34       5.84
H       7.75       1.98       6.62
C       9.33      -3.68       8.08
C       8.05      -2.85       8.30
C       7.68      -2.74       9.80
C       7.21      -4.07      10.43
