23

C       1.37       1.79      15.30
C       0.27       1.28      16.20
C       0.07      -0.08      16.43
O       2.15       0.88      14.80
H       0.76      -0.79      15.97
C      -3.07      -0.06      18.55
C      -5.30       0.28      19.40
H      -6.23       0.84      19.47
O       1.46       3.01      15.06
H      -4.36       1.60      18.01
C      -4.25       0.70      18.60
H      -1.15      -1.59      17.36
C      -1.91       0.39      17.75
C      -1.00      -0.52      17.20
H      -2.37       2.50      17.98
C      -1.69       1.77      17.54
H      -4.08      -2.44      20.76
H      -0.43       3.27      16.63
C      -4.10      -1.57      20.11
C      -0.61       2.21      16.79
H      -2.12      -1.84      19.38
C      -3.02      -1.23      19.32
N      -5.23      -0.83      20.16
