20

H       7.19       9.69      11.87
H       7.29      12.16      11.61
H       2.04      12.53      12.56
H       2.02      12.26      10.79
H       1.88       9.77      11.18
O       3.86       7.55      12.09
O       6.12       7.49      12.17
O       4.11      14.55      11.63
O       6.37      14.48      11.47
H       1.97      10.05      12.94
C       5.01       8.10      12.09
C       5.23      13.93      11.56
C       3.90      10.37      11.91
C       5.05       9.58      11.96
C       6.27      10.27      11.84
C       6.33      11.66      11.69
C       5.16      12.44      11.64
C       3.96      11.76      11.74
C       2.45      11.91      11.75
C       2.38      10.35      11.97
