54

H       1.13      20.81       7.61
H       1.22      21.09       5.30
H       0.20      21.68       3.55
H      -0.90      21.65       1.37
H      -1.41      22.60      -0.49
H      -2.55      22.55      -2.65
H      -3.71      21.84      -4.44
H      -1.72      21.80      -7.64
H       4.97      21.75       5.90
H       5.92      21.91       8.17
H       3.99      21.38       3.98
H       0.50      19.93      -4.21
H       1.65      19.98      -2.04
H      -1.13      20.75      -5.71
H      -6.56      20.86      -8.17
H      -5.61      21.23      -5.89
O       4.66      21.66      10.39
H       4.00      20.99       1.62
H       2.89      21.01      -0.57
O       0.59      20.50       9.94
O       2.22      21.11      11.34
O      -1.19      21.98      -9.98
O      -2.81      21.29     -11.34
O      -5.26      20.80     -10.37
C       4.08      21.50       9.19
C       2.18      21.07       7.71
C       2.95      21.28       6.56
C       2.31      21.22       5.26
C       2.90      21.31       4.04
C       2.20      21.32       2.77
C       0.80      21.51       2.65
C       0.18      21.51       1.42
C       0.90      21.31       0.22
C       0.21      21.29      -1.08
C      -0.99      21.99      -1.30
C      -1.64      21.96      -2.52
C      -1.12      21.23      -3.61
C       0.74      20.56      -2.17
C      -3.02      21.52      -5.23
C      -2.78      21.54      -7.72
C      -3.30      21.37      -9.02
C      -2.38      21.56     -10.16
C       2.29      21.13       0.33
C       2.92      21.14       1.57
C       4.32      21.57       6.76
C       4.87      21.67       8.03
C       2.70      21.16       9.01
C       0.09      20.53      -3.39
C      -1.75      21.17      -4.92
C      -3.57      21.45      -6.58
C      -4.69      21.06      -9.19
C      -5.50      21.05      -8.03
C      -4.96      21.25      -6.77
C       1.78      20.91      10.14
