24

O      17.08      11.99      12.62
O      14.87      11.64      13.03
O      14.61      17.02       8.95
O      16.85      16.69       9.18
H      14.30      16.81      14.49
H      15.83      17.36      13.79
H      15.79      15.89      14.78
H      14.37      16.22      12.06
H      14.37      14.75      13.04
H      16.86      16.08      11.82
H      16.90      14.66      12.84
H      17.16      14.10      10.50
H      14.36      13.10      11.23
H      15.60      12.28      10.29
H      15.40      14.29       8.83
H      14.24      14.91      10.00
C      15.23      16.47      14.02
C      14.97      15.63      12.77
C      16.28      15.19      12.11
C      16.14      14.29      10.87
C      15.44      12.95      11.15
C      15.84      12.14      12.37
C      15.31      14.92       9.74
C      15.63      16.32       9.27
