28

O      -1.18       8.93       1.38
C       2.13       6.12       6.40
C       0.90       7.61       3.06
O       0.44       7.77       5.78
C      -0.25       7.07       2.54
H       2.33       8.96       3.44
H       0.71      10.38       1.71
H       1.29       9.03       0.72
C       1.68       6.75       4.03
H       2.47      10.12       1.51
C       1.40       6.85       5.38
C      -1.23       7.68       1.66
H      -0.48       6.05       2.84
C       1.50       9.62       1.62
C       2.94       5.79       2.09
H       3.19       5.45       4.19
H       3.98       6.07       1.85
H       2.26       6.40       1.48
H       2.79       4.74       1.80
C      -0.82       7.18       6.13
N       2.67       5.99       3.50
N       1.58       8.76       2.79
H      -0.70       6.44       6.94
H      -1.28       6.70       5.25
H      -1.45       8.00       6.48
O       3.14       5.38       6.04
O       1.76       6.24       7.64
O      -2.16       6.88       1.22
