28

C       0.64       7.25       4.99
C       1.44       7.03       3.87
H      -2.22       9.19      10.06
C       1.87       8.10       3.08
H      -1.81       7.04       6.37
C       1.43       9.40       3.39
H       0.57      10.58       7.12
C       0.62       9.62       4.50
C       2.81       7.84       1.95
O       0.27      12.09       9.20
O      -0.54      10.87      10.87
O      -3.53       6.11       7.97
H       0.36       6.41       5.63
O      -3.92       7.52       9.70
H       1.78       6.02       3.63
O       3.41       8.79       1.39
H       1.76      10.23       2.77
O       2.98       6.59       1.65
H       0.28      10.63       4.73
C      -0.79       9.98       8.67
C      -1.76       9.08       9.08
C      -2.15       8.04       8.24
C      -1.51       7.87       7.01
C      -0.52       8.77       6.58
C      -0.19       9.86       7.41
C      -0.35      11.03       9.62
C      -3.28       7.14       8.66
C       0.23       8.55       5.33
