20

H      15.25      10.96      18.25
H      15.84      11.31      20.64
H      15.08       7.14      21.45
H      14.49       6.79      19.06
C      15.12       7.97      20.74
C      14.79       7.77      19.41
C      14.83       8.85      18.49
C      15.50       9.25      21.20
C      15.86       9.46      22.55
C      14.46       8.64      17.14
C      16.19       9.66      23.71
C      13.47       8.04      14.77
C      16.79      10.02      24.96
C      14.11       8.43      15.99
C      15.21      10.13      18.95
C      15.54      10.33      20.28
O      16.52      11.19      25.41
O      17.58       9.18      25.51
O      12.61       8.85      14.27
O      13.75       6.88      14.31
