24

C       6.29       5.37      16.61
H       6.67       9.39      15.71
C       6.96       4.66      17.60
H       6.00      11.44      14.68
C       5.76       7.49      15.47
H       4.85      12.64      12.83
H       3.23       9.14      11.35
C       5.96       8.78      15.14
C       5.27       9.49      14.07
H       4.35       7.77      13.10
C       5.39      10.89      13.97
C       4.75      11.57      12.95
C       3.85       9.61      12.12
C       4.48       8.85      13.10
N       7.77       5.26      18.49
N       3.98      10.95      12.04
H       8.59       7.03      19.18
H       7.46       8.45      17.49
C       7.93       6.59      18.43
H       5.63       4.84      15.93
C       6.46       6.76      16.53
C       7.30       7.37      17.48
H       6.83       3.59      17.69
H       5.02       6.89      14.93
