51

C       1.90       7.91       5.77
C       1.48       9.01       4.86
O      -6.72       8.21       6.76
H       3.42       9.21       3.96
C       2.39       9.56       3.95
O      -5.29       6.80       5.83
C       1.97      10.51       3.03
H       2.67      10.92       2.31
O       3.09       7.47       5.66
C       0.62      10.93       3.00
H      -1.32      10.72       3.92
H      -0.56       9.04       5.57
C      -0.29      10.40       3.94
C       0.15       9.46       4.85
H       0.58      14.52      -0.56
C      -0.93      12.40       1.66
O       2.72      16.82      -4.26
H       2.11      15.49      -2.27
C      -3.16      12.61       1.87
H      -1.23      17.48      -4.13
C      -2.03      13.94       0.43
H      -2.73      16.57      -2.43
C      -1.18      15.47      -1.38
H      -3.22       9.79       2.46
C       0.20      15.19      -1.33
H      -3.87       7.93       3.97
C       1.04      15.72      -2.29
H      -6.70      10.49       5.94
H      -6.05      12.37       4.43
C       0.55      16.54      -3.32
C      -0.81      16.86      -3.34
C      -1.67      16.34      -2.38
N       0.28      11.86       2.01
C       1.46      16.95      -4.40
N      -2.04      11.95       2.24
C      -5.79       8.00       5.93
N      -3.23      13.62       0.99
C      -4.60      11.20       3.34
N      -0.85      13.38       0.73
C      -3.98       9.94       3.22
N      -2.12      14.93      -0.51
C      -4.35       8.90       4.07
N      -4.34      12.26       2.47
C      -5.33       9.09       5.05
C      -5.94      10.35       5.17
C      -5.58      11.39       4.33
H       1.05      12.24       1.47
H      -3.08      15.23      -0.65
O       1.04       7.43       6.60
H      -5.09      12.92       2.29
O       1.00      17.40      -5.53
