26

C       1.70      12.37       2.59
H       0.21      10.80       2.75
C       2.00      13.67       3.03
C       1.13      14.34       3.87
C      -0.33      12.55       3.87
C       0.50      11.81       3.04
H       3.62       7.07      -1.92
N       4.94       8.65      -1.75
H       2.15       7.87      -0.02
N      -0.02      13.79       4.29
H       4.83      11.23       0.40
H       1.34      15.35       4.24
H       6.19      10.27      -1.44
H       1.36      10.13       0.90
C       3.84       7.98      -1.36
H       2.37       9.59       2.22
C       3.03       8.44      -0.33
H       2.74      12.27       0.75
C       3.33       9.65       0.31
H       3.67      11.75       2.15
C       4.51      10.30      -0.07
H      -1.28      12.15       4.24
H       2.93      14.15       2.72
C       5.28       9.78      -1.10
C       2.37      10.23       1.32
C       2.67      11.68       1.68
