30

C       8.43       2.04      15.75
H       4.24       3.87      14.99
C      10.70       1.45      16.34
H       6.98       1.31      17.22
C       6.16       3.02      15.37
H      10.19       2.57      14.58
N      10.30       0.84      17.47
C       5.21       3.64      14.56
H       0.28       6.08      12.38
H      11.77       1.45      16.15
C       3.34       5.17      12.79
C       9.80       2.06      15.47
H       1.18       6.12      13.92
C       8.03       1.38      16.92
C       2.41       5.98      12.11
C       1.19       6.45      12.88
H       1.14       7.55      12.85
O       4.92       4.65      11.06
H       3.13       5.01      13.85
C       8.99       0.82      17.75
H       8.72       0.32      18.68
C       4.54       4.62      12.29
O       2.50       6.37      10.89
C       6.78       3.62      12.73
C       5.50       3.95      13.22
C       7.43       2.69      14.87
C       7.72       3.01      13.54
H       8.70       2.76      13.11
H       7.00       3.85      11.69
H       5.90       2.79      16.41
