22

O       4.57       5.85       7.90
O       8.41      11.51       7.49
O       3.12       6.92       6.53
H       8.07       9.09       8.39
H       6.69       7.03       8.05
H       3.30       9.48       7.08
H       3.00      11.62       9.27
H       4.52      12.43       9.72
H       3.26      13.33       8.84
H       5.10      12.69       7.28
H       3.60      11.87       6.83
C       7.35      11.59       8.19
C       7.01       9.16       8.15
C       6.26       8.02       7.94
C       4.92       8.14       7.54
C       4.34       9.41       7.41
C       5.06      10.58       7.70
C       6.42      10.43       8.05
C       4.15       6.89       7.30
C       4.38      11.92       7.61
C       3.75      12.35       8.94
O       7.05      12.56       8.99
