42

C      32.10      19.02      10.24
C      33.32      19.93      10.41
C      33.65      20.18      11.88
C      30.72      17.85       4.74
C      29.50      16.94       4.57
C      29.17      16.69       3.10
N      33.92      17.30       7.85
N      28.90      19.57       7.13
H      32.80      20.65      12.40
H      33.87      19.24      12.40
H      34.52      20.84      12.00
H      34.19      19.49       9.91
H      33.14      20.89       9.90
O      29.65      17.21      10.43
H      31.50      20.86       7.78
H      32.27      18.07      10.77
H      28.95      17.63       2.57
H      30.02      16.22       2.58
H      31.23      19.48      10.73
H      29.68      15.98       5.08
H      28.63      17.38       5.07
H      30.55      18.80       4.21
H      31.59      17.39       4.25
H      33.99      16.66       8.65
H      31.32      16.01       7.20
H      34.65      18.01       7.93
H      28.83      20.21       6.33
H      28.17      18.86       7.05
O      33.17      19.66       4.55
H      28.30      16.03       2.98
O      28.42      16.83       8.54
O      34.40      20.04       6.44
C      29.45      17.27       9.17
C      33.37      19.60       5.81
C      31.75      18.72       8.81
C      31.07      18.15       6.17
C      31.45      19.77       7.68
C      31.37      17.10       7.30
C      32.32      18.96       6.64
C      30.49      17.91       8.34
C      32.63      17.90       7.75
C      30.19      18.97       7.23
