24

H       7.60      16.58       1.24
H       7.62      14.48      -0.68
H       5.94      18.11      -0.49
H       3.66      16.99       0.77
H       3.66      14.89      -1.14
H       5.33      13.35       0.56
O       5.14      14.23       6.06
O       5.10      16.51       5.97
O       7.21      16.11      -5.97
O       4.93      16.14      -5.89
C       5.14      15.36       5.43
C       6.74      15.03      -0.35
C       6.73      16.21       0.69
C       5.21      15.32       4.00
C       6.11      16.11      -3.91
C       5.47      14.41       0.32
C       5.46      15.57       1.39
C       4.53      15.26      -0.60
C       5.81      15.88      -1.31
C       4.54      16.43       0.43
C       5.80      17.05      -0.24
C       5.31      15.43       2.79
C       5.98      16.03      -2.70
C       6.08      16.13      -5.34
