13

H       2.23       8.59       9.05
O       1.27       6.54      10.47
C       2.05       6.52       9.48
H       4.59       8.58       6.39
O       1.76       7.50       6.27
O       2.12       5.52       8.69
C       2.48       8.56       6.17
C       2.91       7.74       9.21
H       3.48       7.98      10.12
O       2.22       9.50       5.38
C       3.72       8.65       7.06
H       3.74       9.64       7.54
N       3.80       7.56       8.05
