16

C       6.29       1.59       3.55
O       8.19       3.96       6.47
H       7.94       2.06       4.87
C       5.00       1.95       3.13
O       3.19       1.60       1.64
H       6.79       0.74       3.08
C       7.01       4.27       6.13
C       4.33       1.18       2.03
O       4.95       0.17       1.57
H       3.37       3.33       3.35
O       6.33       5.25       6.64
C       6.31       3.45       5.10
H       4.53       4.68       5.10
C       4.37       3.06       3.70
C       5.02       3.81       4.67
C       6.94       2.33       4.53
