36

C       8.43      10.09       9.50
N       9.75      10.27       9.68
C      10.34      11.07       8.79
N       9.71      11.75       7.82
N       7.71      10.66       8.51
C       8.40      11.49       7.71
H       4.62       8.12      11.34
C      11.82      11.19       8.86
N      14.60      11.34       8.89
H       5.72       9.62       9.68
C      12.56      10.47       9.80
N       6.33      13.43       4.51
H       9.52       8.53      11.46
C      13.95      10.57       9.78
C      13.89      12.04       7.98
H       8.26       7.11      13.07
H      12.06       9.83      10.52
C      12.50      11.99       7.93
C       7.67      12.15       6.60
H      14.58      10.02      10.48
C       8.38      12.83       5.60
H      14.47      12.61       7.26
C       7.67      13.46       4.58
H      11.95      12.55       7.18
H       9.47      12.86       5.60
C       5.64      12.75       5.46
C       6.27      12.11       6.51
H       8.20      13.99       3.79
H       4.56      12.74       5.37
H       5.68      11.58       7.26
C       5.70       8.25      11.34
C       6.32       9.08      10.42
C       7.72       9.21      10.46
N       6.39       7.57      12.27
C       8.43       8.49      11.42
C       7.73       7.69      12.31
