24

N       7.21       2.55      10.48
C       4.96       0.78       2.00
C       5.42       1.38       3.16
C       5.18       0.80       4.42
C       4.42      -0.39       4.42
C       3.99      -0.94       3.22
C       5.73       1.41       5.61
H       5.12       1.22       1.02
H       5.98       2.31       3.10
H       4.17      -0.90       5.34
H       3.38      -1.84       3.19
H       6.46       2.21       5.42
C       6.04       1.86      10.49
C       5.44       1.40       9.33
C       6.02       1.64       8.07
C       7.21       2.40       8.08
C       7.76       2.83       9.27
C       5.41       1.09       6.89
H       5.60       1.70      11.47
H       4.51       0.83       9.39
H       7.72       2.66       7.15
H       8.66       3.44       9.30
H       4.62       0.36       7.07
N       4.27      -0.39       2.01
