20

O      26.51      18.86      13.38
O      28.79      18.84      13.40
H      30.84      15.43       9.99
H      30.76      16.46      12.90
O      26.52      13.21       9.24
H      30.83      17.49      11.45
H      25.52      17.08      11.98
H      25.53      15.07      10.52
H      30.76      14.40      11.44
C      28.85      16.56      11.78
C      27.66      17.18      12.17
C      26.46      16.61      11.70
C      26.47      15.49      10.88
C      27.67      14.85      10.49
C      28.85      15.43      10.97
C      30.36      15.31      10.97
C      30.36      16.60      11.89
C      27.65      18.39      13.05
C      27.66      13.64       9.63
O      28.80      13.14       9.34
