20

O      19.29      12.56       6.09
H      21.54      12.99       1.13
H      19.70      11.46       1.48
H      19.32      10.84       2.99
H      22.20      12.95       6.04
H      25.09      13.89       4.09
H      24.47      13.67       5.64
C      23.84      14.12       1.84
C      22.85      13.48       2.75
C      21.69      12.93       2.21
C      20.75      12.28       3.02
C      20.95      12.34       4.41
C      22.09      12.92       4.96
C      23.11      13.44       4.14
C      19.91      11.76       5.32
N      19.61      11.67       2.47
N      24.28      13.97       4.69
O      23.42      15.05       1.07
O      25.05      13.69       1.90
O      19.72      10.49       5.24
