42

N       5.26       8.86      28.02
N       8.58       8.82      24.15
N       9.87       8.77      26.15
N      10.96       8.81      24.04
H       7.54       9.09      19.37
H       7.56       8.99      21.87
H       6.54       8.40      29.57
H       8.59       8.31      28.12
H      15.66       9.06      25.47
H      13.46       8.94      24.27
H      13.59       8.84      29.22
H      11.41       8.75      28.04
O      10.73       8.63      17.08
O       8.58       9.34      17.14
H      11.81       8.69      19.30
H      11.84       8.66      21.81
H       6.05       9.18      24.75
H       4.10       9.27      26.34
O      15.98       9.10      29.45
O      17.18       9.13      27.52
C       9.66       8.96      17.69
C      16.11       9.08      28.15
C       9.68       8.90      19.19
C      14.77       8.97      27.43
C       8.48       8.98      19.91
C       8.49       8.93      21.30
C       6.48       8.56      28.50
C       7.61       8.51      27.69
C      14.72       8.99      26.02
C      13.50       8.92      25.35
C      13.57       8.87      28.14
C      12.35       8.81      27.48
C       5.12       9.06      26.69
C       6.20       9.01      25.81
C      10.89       8.76      19.88
C      10.91       8.74      21.26
C       9.71       8.83      21.99
C       9.75       8.82      23.47
C       7.48       8.76      26.32
C       8.71       8.78      25.48
C      12.29       8.84      26.08
C      10.99       8.80      25.39
