13

O      10.94       8.77       4.05
C      11.83       9.94       2.18
C      10.57       9.64       2.99
H       8.98       8.55       4.73
H      10.05       9.54       5.78
O      11.47       6.85       5.69
O       9.50       7.08       6.79
C      10.37       7.41       5.92
C      10.00       8.65       5.12
H       9.83       9.16       2.33
H      10.15      10.58       3.38
O      12.87       9.27       2.41
O      11.68      10.87       1.32
