28

H       8.87      16.57       5.37
O       8.50      19.72      16.97
H       8.57      20.85       7.87
H       8.44      16.45      12.22
H       8.66      16.52       7.85
H       8.44      20.78      12.32
O       8.33      17.45      17.02
H       8.45      20.68      14.82
O       9.19      19.76       3.13
O       8.87      17.51       3.19
F       8.79      21.11       5.36
F       8.46      16.15      14.74
C       8.43      18.57      16.42
C       8.98      18.66       3.73
C       8.86      18.71       5.22
C       8.81      17.50       5.94
C       8.69      17.47       7.32
C       8.61      18.68       8.05
C       8.64      19.90       7.35
C       8.77      19.90       5.96
C       8.51      18.67       9.46
C       8.46      18.66      10.68
C       8.44      18.63      12.09
C       8.44      17.39      12.77
C       8.44      17.37      14.16
C       8.44      18.55      14.93
C       8.44      19.77      14.23
C       8.44      19.82      12.84
