16

C      27.42      11.15      30.13
C      24.55       9.33      27.41
C      26.43      10.51      29.19
C      24.39       9.20      28.81
O      24.03       8.20      25.39
C      26.62      10.58      27.79
C      25.29       9.84      29.69
C      25.65      10.06      26.91
O      22.34       8.67      26.82
O      27.95      12.25      29.77
O      27.66      10.55      31.23
C      23.56       8.69      26.47
Cl      23.15       8.23      29.49
Cl      28.04      11.26      27.11
Cl      24.94       9.80      31.37
Cl      25.82      10.39      25.24
