20

N       3.56      14.41      10.79
H      -3.47      12.52       9.96
H       3.48      12.52       9.96
C      -2.87      13.35      10.33
C       2.87      13.35      10.33
H      -1.00      12.41       9.95
H       1.00      12.41       9.95
C      -1.48      13.31      10.33
C       1.48      13.31      10.33
H      -1.00      16.37      11.72
H       1.00      16.37      11.72
C      -0.74      14.39      10.82
C       0.74      14.39      10.82
H      -3.47      16.28      11.67
H       3.47      16.28      11.67
C      -1.48      15.48      11.31
C       1.48      15.48      11.31
C      -2.87      15.45      11.28
C       2.87      15.45      11.28
N      -3.56      14.41      10.79
