40

H       4.33       1.84       8.80
H      10.62      -1.71       9.26
H       8.46       3.35       8.46
H       6.53      -3.26       8.60
H       2.79      -0.04       8.55
H      12.19       0.16       9.01
H       6.63       2.71       8.86
H       8.33      -2.58       9.18
H      13.31       3.42       9.34
H      13.76       1.78       8.79
H      13.34       3.07       7.63
H       1.76      -3.07       7.29
H       1.60      -3.23       9.03
H       1.24      -1.66       8.25
C       4.31      -4.49       8.22
C      10.70       4.57       8.25
C       4.44      -3.01       8.42
C      10.55       3.10       8.51
C       3.61      -0.75       8.57
C      11.37       0.87       8.88
C       3.33      -2.10       8.42
C      11.66       2.21       8.67
C       5.73      -2.52       8.61
C       9.25       2.62       8.60
C       6.02      -1.15       8.76
C       8.95       1.26       8.81
C       4.92      -0.25       8.72
C      10.05       0.36       8.94
C       7.37      -0.64       8.89
C       7.59       0.76       8.84
C       6.47       1.63       8.83
C       8.50      -1.51       9.06
C       5.18       1.15       8.79
C       9.78      -1.03       9.10
C      13.10       2.64       8.61
C       1.90      -2.54       8.24
O       3.14      -4.98       8.11
O      11.86       5.05       8.06
O       5.39      -5.16       8.18
O       9.62       5.25       8.23
