54

H       4.61       1.63       8.61
H       4.15      -1.39       8.79
C       6.19      -1.80       4.14
C       6.35      -1.40       6.98
C       2.92       2.10       3.78
C       2.79       2.24       6.66
C       6.37       1.20      10.67
C       5.95       1.67      13.47
C       2.12      -1.59      10.49
C       2.04      -1.63      13.40
H       7.24      -1.49       4.00
H       5.81      -2.07       3.15
H       6.19      -2.70       4.76
H       5.99      -2.43       7.11
H       6.52      -0.99       7.98
H       7.33      -1.47       6.48
H       1.91       1.70       3.61
H       3.36       2.27       2.79
H       2.82       3.07       4.27
H       3.14       3.28       6.55
H       2.68       2.04       7.73
H       1.80       2.19       6.20
O       5.09      -0.07      15.50
O       2.84       0.14      15.50
H       6.23       2.28      10.48
H       6.58       0.73       9.71
H       7.26       1.11      11.31
H       6.90       1.18      13.74
O       3.42      -0.08       1.95
O       5.68       0.03       1.90
H       2.38      -2.66      10.36
H       2.00      -1.15       9.50
H       1.14      -1.56      10.99
H       1.09      -1.09      13.53
H       2.37      -1.92      14.41
H       1.82      -2.55      12.84
H       6.19       2.54      12.84
H       5.51       2.04      14.40
C       3.98       0.03      14.89
C       4.55       0.03       2.52
C       4.57       0.16       4.01
C       3.76       1.15       4.60
C       3.74       1.26       6.00
C       4.56       0.42       6.79
C       5.40      -0.55       6.18
C       5.38      -0.70       4.78
C       4.52       0.60       8.25
C       4.32      -0.38       9.16
C       3.17      -0.85      11.29
C       4.23      -0.20      10.62
C       5.17       0.58      11.34
C       5.02       0.73      12.73
C       4.00       0.01      13.40
C       3.08      -0.80      12.69
