16

O       2.05       8.28       4.57
C       2.08      11.53       6.17
O       4.71      14.12       8.37
H       1.04      11.79       5.95
C       4.68      10.87       6.77
O       0.41       9.79       4.84
H       5.71      10.61       6.99
C       1.60       9.40       5.03
O       6.35      12.61       8.09
C       5.15      13.00       7.91
O       2.27      13.65       7.15
C       2.55      10.28       5.77
O       4.49       8.75       5.79
C       4.21      12.12       7.16
C       2.85      12.48       6.85
C       3.90       9.92       6.08
