26

O       5.71       6.01      11.14
O       5.16       8.21      11.06
O       5.58       8.47      -0.30
O       5.09       6.26      -0.21
H       5.38       5.04       6.30
H       5.32       9.46       4.54
C       5.43       7.08       9.02
H       5.43       5.13       4.36
H       5.46       9.21       8.95
H       5.47       9.37       6.49
C       5.42       5.93       8.22
C       5.40       5.98       6.84
F       5.40       4.69       8.78
C       5.31       8.56       2.62
C       5.34       8.51       4.01
C       5.35       6.19       2.51
C       5.39       6.11       3.89
C       5.45       8.30       8.34
C       5.45       8.38       6.96
C       5.41       7.22       6.16
C       5.38       7.28       4.68
C       5.32       7.41       1.82
F       5.26       9.80       2.06
H       5.36       5.28       1.90
C       5.43       7.09      10.52
C       5.33       7.40       0.33
