16

C      14.53      22.91       9.90
O      15.55      22.21      10.24
C      11.18      25.71      13.66
O      10.08      25.11      13.90
C      14.30      24.28      12.03
C      13.49      25.02      12.89
C      12.10      25.03      12.72
C      11.52      24.31      11.66
C      12.33      23.64      10.75
C      13.72      23.61      10.95
O      11.52      26.84      14.18
H      15.37      24.23      12.18
H      13.93      25.59      13.72
H      10.44      24.30      11.55
H      11.90      23.14       9.89
O      14.11      23.06       8.71
