27

H       0.99       7.48       4.53
H       0.63       9.78       5.43
H       0.23      10.14       7.86
H       0.15       8.17       9.39
H       0.22       5.97       9.80
H      -0.18       3.96      10.45
H       0.32       2.53       9.47
H       2.75       1.89       9.38
H       4.95       1.97      10.62
H       5.27       3.75      12.36
H       1.44       5.20      11.81
C       0.76       6.51       6.44
C       0.80       7.65       5.60
C       0.61       8.92       6.10
C       0.39       9.13       7.48
C       0.34       8.04       8.32
C       0.52       6.73       7.84
C       0.46       5.66       8.78
C       0.59       3.55       9.78
C       1.92       3.53      10.50
C       2.93       2.61      10.18
C       4.14       2.67      10.85
C       4.33       3.64      11.82
C       2.19       4.47      11.51
N       0.66       4.39       8.56
N       3.37       4.53      12.14
O       0.91       5.32       5.92
