20

C      24.16      -0.37      28.31
C      22.05       0.76      26.67
C      24.18      -0.46      26.92
C      22.03       0.83      28.09
C      23.16       0.09      26.14
C      23.05       0.29      28.88
C      24.96      -0.96      25.73
C      23.81      -0.34      24.84
H      22.99       0.38      29.96
H      25.95      -0.51      25.59
H      25.07      -2.05      25.67
H      23.22      -1.07      24.25
H      24.11       0.48      24.18
Br      20.63       1.66      29.09
C      21.02       1.31      25.74
C      25.23      -0.93      29.19
O      20.02       1.92      26.22
O      21.24       1.10      24.50
O      25.11      -0.73      30.45
O      26.17      -1.56      28.60
