13

O       6.10       7.88       2.03
C       6.87       6.41      -0.31
C       5.21       7.24       1.38
H       7.58       7.16       0.04
C       5.61       6.30       0.29
C       4.72       5.33      -0.19
H       3.73       5.23       0.23
C       7.19       5.54      -1.35
N       6.35       4.60      -1.80
H       8.16       5.60      -1.85
C       5.13       4.50      -1.23
O       3.96       7.39       1.63
H       4.47       3.73      -1.62
