24

O       9.00       1.41      13.78
O       7.30      -0.05      14.06
O       3.92       3.98       9.43
O       5.19       2.98       7.84
O       4.43       0.69      10.07
O       8.42       3.88      14.03
H       8.06       6.61      10.43
H       8.93       6.04      12.69
H       5.94      -0.06      12.17
H       6.52       5.05       9.28
H       4.29      -0.14      10.57
H       8.88       4.69      14.35
C       4.88       3.24       9.06
C       6.96       4.78      10.24
C       7.81       5.65      10.88
C       8.33       5.31      12.14
C       8.04       4.09      12.74
C       7.29       3.09      12.04
C       6.67       3.51      10.81
C       5.71       2.67      10.17
C       5.41       1.43      10.68
C       6.11       0.95      11.81
C       7.04       1.73      12.48
C       7.83       1.01      13.53
