28

N      10.06      10.76       0.25
N      10.70      11.32      -0.69
Cl       5.80       9.67       2.64
Cl      15.04      12.86      -2.70
O      16.87      10.30       0.45
O      17.13      12.19      -0.78
O       3.86      11.31      -1.12
O       3.64      10.31       0.90
H       6.01      11.59      -1.88
H       8.52      11.63      -1.88
H       8.49       9.93       2.07
H      12.31      12.47      -2.29
H      12.19      10.04       1.25
H      14.70      10.09       1.33
C       5.83      10.75       0.08
C       6.58      11.23      -1.02
C       7.96      11.26      -1.03
C       8.65      10.79       0.10
C       7.94      10.29       1.20
C       6.54      10.28       1.20
C      12.84      11.96      -1.49
C       4.33      10.79      -0.05
C      12.11      11.27      -0.52
C      12.77      10.59       0.51
C      14.93      11.33      -0.39
C      14.24      12.00      -1.42
C      14.15      10.63       0.55
C      16.42      11.28      -0.24
