12

O      -3.13      12.99      10.08
O      -2.39      13.99       8.19
C      -3.28      13.66       8.99
C      -4.71      14.05       8.71
C      -5.05      14.36       7.40
C      -7.22      14.77       8.04
C      -5.72      14.15       9.66
N      -6.29      14.73       7.06
N      -6.98      14.50       9.33
H      -4.30      14.34       6.62
H      -8.24      15.02       7.75
H      -5.54      13.95      10.72
