44

O       6.81      11.06      13.36
O       7.68       9.56      14.83
O      -6.05      11.50      13.88
O      -6.94       9.80      15.11
C       6.72      10.14      14.23
C       5.35       9.73      14.68
C       4.20       9.94      13.90
C       2.95       9.53      14.36
C       2.81       8.92      15.62
C       3.96       8.79      16.43
C       5.21       9.17      15.96
C       1.53       8.35      16.09
C       1.57       7.25      16.96
C      -0.52       5.54      19.49
C      -0.47       4.47      20.37
H       4.31      10.41      12.92
H       2.06       9.66      13.74
H       3.87       8.39      17.44
H       6.09       9.04      16.58
H       2.52       6.81      17.25
H      -1.23       6.35      19.66
H      -1.13       4.41      21.23
H      -3.57      11.82      14.62
C      -5.97      10.48      14.64
H      -3.12       7.03      15.82
C      -4.60       9.97      14.98
H      -1.32      10.89      15.23
H      -1.77       6.95      17.42
H      -5.34       7.98      15.33
C      -3.46      10.78      14.91
H       1.99       4.50      17.45
C      -2.20      10.26      15.24
H       1.91       2.62      19.09
C      -2.07       8.91      15.62
C      -3.21       8.09      15.61
C      -0.78       8.36      16.10
C      -0.82       7.31      17.04
C      -4.46       8.62      15.31
C       1.28       4.53      18.28
C       1.25       3.48      19.19
C       0.38       6.72      17.46
C       0.38       5.59      18.41
N       0.39       3.45      20.22
N       0.37       8.88      15.65
