16

O      10.26      13.85       6.34
O       5.90      11.06       1.71
C      10.57      12.71       5.85
C       9.60      12.09       4.90
O       6.88       9.03       2.02
C       7.77      10.92       3.15
C       8.49      12.82       4.45
C       8.87      10.18       3.60
C       6.78      10.29       2.23
C       7.59      12.24       3.57
C       9.79      10.77       4.47
O      11.64      12.04       6.10
H       8.36      13.84       4.80
H       9.00       9.15       3.27
H       6.73      12.80       3.20
H      10.66      10.21       4.82
