48

N      -0.65      24.40      12.96
O      -5.44      20.79      10.72
H       1.29      25.80      13.06
O      -3.91      19.19      10.99
H      -0.61      27.68      15.47
O      -1.40      19.89      11.78
H       0.51      30.96      16.73
O       3.10      34.31      20.97
H      -2.49      31.03      18.25
O       1.52      35.88      20.87
H      -2.19      33.34      18.85
O      -0.93      35.23      20.01
H       2.53      32.25      19.85
H       1.12      30.55      18.71
H       1.78      31.22      14.89
H       2.93      30.14      12.97
H       2.25      27.86      12.24
H       0.27      24.00      13.13
H      -0.10      21.89      12.64
H      -4.75      22.98      11.37
H      -3.25      24.81      12.19
C      -0.76      25.75      13.26
C       0.78      27.64      13.81
C       0.14      28.23      14.91
C       0.49      29.53      15.28
C      -1.30      30.08      16.97
C      -0.63      31.85      18.66
C      -1.15      33.08      19.06
C      -0.37      34.05      19.70
C       1.01      33.74      19.97
C       1.50      32.48      19.59
C       0.72      31.53      18.94
C       1.93      34.67      20.64
C       1.49      30.22      14.58
C       2.13      29.61      13.50
C       1.76      28.33      13.10
C      -1.58      23.47      12.51
C      -1.13      22.15      12.39
C      -1.94      21.11      11.91
C      -3.30      21.42      11.57
C      -3.73      22.76      11.68
C      -2.91      23.78      12.13
C      -4.26      20.44      11.07
S      -2.16      26.62      13.41
S      -2.56      29.12      16.48
N       0.49      26.31      13.43
N      -0.07      30.19      16.39
N      -1.50      30.94      18.04
