55

C       9.91       2.98      19.98
C      14.87       1.56      12.35
H       8.79       5.24      17.68
C       9.48       3.26      17.23
H      12.15       0.68      10.78
H      11.12      -1.57      17.07
N       9.17       5.29      20.31
H      16.27       1.48      10.62
N      10.17       0.93      16.89
H       5.13      -2.83      18.00
C       8.95       5.26      21.69
H       7.55       0.82      17.37
C      10.15       1.91      19.12
H      11.49      -0.43      12.72
N       6.48      -5.85      17.86
N      14.21       0.96      10.29
H       9.99      -0.55      14.67
H       6.19      -1.19      17.68
C       9.44       4.19      19.46
H      15.41       1.83      13.25
C      10.98       1.03      15.76
N       7.09      -3.73      17.70
H       8.52      -5.36      17.49
C      13.16       0.90      11.10
N      13.52       1.25      12.38
C      12.84       2.08      14.58
H       8.48       6.96      23.04
C       9.41      -0.25      17.15
C      12.01       1.99      15.70
H       9.21       6.97      18.92
N       8.77       7.38      20.96
C      12.66       1.20      13.51
C       5.72      -3.74      17.96
H      10.12       2.87      21.04
C       8.03      -0.16      17.36
C       5.37      -5.06      18.06
H       9.31       3.36      16.16
C       7.27      -1.30      17.55
C       9.27      -2.65      17.36
H       8.95       4.33      22.24
C       7.50      -5.04      17.65
C       9.21       4.32      18.08
H      10.52       0.96      19.54
H      13.62       2.83      14.56
C      10.03      -1.51      17.17
C       8.70       6.55      22.06
C      15.28       1.37      11.05
H      12.16       2.66      16.54
C       7.88      -2.56      17.53
C      11.63       0.26      13.55
C       9.95       2.04      17.74
H       4.40      -5.51      18.23
H       9.77      -3.62      17.39
C       9.06       6.60      19.93
C      10.79       0.18      14.65
