17

H      23.10      11.01      13.62
O      24.48      10.55      14.40
C      21.85       7.58      11.33
O      25.69       8.62      14.37
C      23.71       8.74      13.08
C      22.59       9.49      12.63
C      22.96       6.83      11.77
C      21.67       8.89      11.76
C      23.87       7.42      12.64
H      23.09       5.81      11.43
H      20.81       9.47      11.42
H      24.74       6.87      12.99
C      24.70       9.33      14.01
O      21.07       5.75      10.06
O      22.35      10.77      13.01
O      19.88       7.69      10.02
C      20.86       6.96      10.40
