16

C      27.14      18.90      10.95
C      27.10      13.85      14.29
S      28.63      15.82      13.10
S      25.62      18.14      11.33
O      26.00      20.54       9.76
O      28.28      20.64       9.89
C      27.15      20.12      10.14
F      24.74      15.41      13.07
F      29.50      18.56      11.36
C      26.03      15.76      12.94
O      28.25      13.43      14.66
C      27.10      15.07      13.48
O      25.96      13.33      14.55
C      27.82      17.06      12.22
C      26.42      16.91      12.21
C      28.21      18.20      11.49
