16

C       3.29      10.64      12.00
O       1.39       8.27       9.08
C       4.58      10.28      12.43
O       6.40      10.64      13.91
H       1.64      10.17      10.69
H       2.80      11.49      12.47
C       2.58       7.96       9.42
C       5.25      11.05      13.52
O       4.64      12.06      13.98
H       6.21       8.90      12.20
C       3.28       8.78      10.45
H       5.06       7.55      10.45
C       5.22       9.17      11.85
O       3.25       6.98       8.91
C       4.57       8.42      10.88
C       2.65       9.90      11.02
