28

C      17.29      27.99      11.33
F       7.06      24.26      14.59
F       8.91      25.90      18.72
C       6.60      24.65      17.45
F      11.11      26.58      17.43
F       9.28      24.96      13.36
F      12.78      26.06      11.35
F      16.83      28.38      14.19
F      14.98      26.74      10.05
F      14.61      27.68      15.42
C       7.85      25.04      16.73
C       8.01      24.83      15.34
C       9.18      25.19      14.68
C      10.26      25.79      15.36
C      10.10      26.01      16.74
C       8.94      25.64      17.41
C      11.43      26.16      14.68
C      12.45      26.48      14.10
C      13.63      26.85      13.42
C      13.78      26.63      12.04
C      14.95      27.00      11.37
C      16.03      27.60      12.05
C      15.87      27.82      13.44
C      14.70      27.45      14.10
O      18.21      28.52      12.03
O      17.32      27.77      10.07
O       5.67      24.12      16.75
O       6.56      24.87      18.71
