44

H      -1.19      24.23      16.20
H      -2.76      22.38      15.55
H      -5.82      25.31      14.76
H      -4.32      27.09      15.38
H      -6.51      23.75      13.63
H      -8.82      22.74      12.92
H      -2.98      21.04      11.41
H      -5.07      20.62      12.80
H      -3.18      28.04      16.75
H       0.46      28.24      17.40
H       1.46      30.21      18.57
H      -3.33      30.27      17.30
C      -1.63      26.83      16.24
C      -2.63      25.79      15.83
C      -2.20      24.45      15.87
C      -3.07      23.43      15.51
C      -4.37      23.71      15.07
C      -4.80      25.04      15.04
C      -3.94      26.07      15.43
C      -5.18      22.53      14.63
C      -6.87      21.80      12.97
C      -8.21      21.91      12.57
C      -8.77      20.96      11.72
C      -8.03      19.85      11.24
C      -6.66      19.77      11.65
C      -6.11      20.73      12.50
C      -5.74      18.69      11.23
C      -1.51      29.10      17.29
C      -0.14      29.11      17.63
C       0.41      30.21      18.28
C      -0.36      31.34      18.64
C      -1.74      31.34      18.25
C      -2.27      30.23      17.58
C      -2.65      32.47      18.52
N      -6.25      22.78      13.80
N      -2.17      28.00      16.72
O      -4.56      18.63      11.70
O      -6.15      17.83      10.35
O      -8.62      18.95      10.43
O      -3.83      32.49      18.05
O      -2.22      33.43      19.27
O       0.23      32.34      19.32
O      -0.41      26.62      16.17
O      -4.84      21.38      14.94
