24

C       5.86       7.11       6.25
C       5.87       6.93       9.15
O       5.83       7.86      11.34
O       5.75       5.61      11.11
C       6.07       5.90       6.94
C       5.74       8.18       8.49
C       6.04       5.82       8.32
C       5.67       8.26       7.06
C       6.32       4.42       6.75
C       6.26       4.32       8.32
H       5.53       3.88       6.21
H       7.29       4.17       6.30
O       5.91       6.02       4.16
O       5.57       8.26       4.17
H       7.19       3.97       8.81
H       5.42       3.72       8.71
H       5.77       9.27      10.17
H       6.06      10.17       8.73
H       5.16       9.44       5.54
H       4.77      10.07       7.09
C       5.82       6.79      10.63
N       5.58       9.38       9.17
N       5.42       9.52       6.53
C       5.78       7.13       4.77
