36

C       8.59      12.09       0.89
H       5.81       9.16       5.79
C       9.94      12.16       0.59
H      10.61       9.30       4.62
C       3.50      13.00       1.25
H       9.86       8.16       6.67
C       4.43      12.12       2.01
H      11.21      10.24       3.07
C       5.77      12.10       1.66
H       7.88      12.61       0.25
C       6.72      11.35       2.38
H      10.29      12.74      -0.27
C       6.27      10.60       3.51
H       6.07      12.73       0.82
C       4.89      10.60       3.82
H       4.53      10.02       4.67
C       3.98      11.34       3.10
H       2.93      11.37       3.37
O       6.07       7.90       7.88
O       8.19       7.72       8.53
O      13.17      10.84       1.70
O      12.75      12.58       0.38
O       3.99      13.69       0.31
O       2.27      13.08       1.60
C       7.32       8.02       7.64
C       7.77       8.60       6.34
C       6.85       9.20       5.50
C       7.25       9.89       4.33
C       8.63       9.94       4.00
C       9.55       9.28       4.86
C       9.14       8.63       6.01
C      12.33      11.63       1.14
C      10.88      11.49       1.39
C      10.44      10.75       2.48
C       9.08      10.67       2.83
C       8.13      11.37       2.02
