28

H       2.10      15.83      12.38
H       2.05      15.76       9.86
H       1.99      11.47      10.01
N       1.99      13.43       8.40
N       1.99      14.51       7.73
H       1.99      16.47       6.12
H       2.05      12.18       6.27
H       2.10      12.11       3.76
O       1.01      14.68       1.43
O       2.90      13.43       1.50
O       1.01      13.26      14.70
O       2.90      14.51      14.63
C       1.97      14.12       2.04
C       1.97      13.82      14.09
C       2.01      13.70      12.60
C       2.06      14.88      11.84
C       2.03      14.85      10.46
C       2.00      13.61       9.80
C       1.99      12.42      10.54
C       1.98      12.46      11.93
C       1.99      15.52       5.59
C       2.00      14.34       6.33
C       2.03      13.09       5.68
C       2.06      13.06       4.29
C       2.01      14.24       3.53
C       1.98      15.48       4.20
Br       2.03      10.82      12.88
Br       2.03      17.12       3.25
