29

C      -0.32      12.47       3.28
C      -1.06      11.18       3.61
C      -0.64      10.63       4.98
O      -2.28      10.71       0.59
O      -0.97       9.74      -1.01
O       2.32      15.97       0.14
O       1.18      16.77      -1.65
H       0.83      14.78       2.47
C      -1.33      10.72      -0.26
C       1.46      15.88      -0.77
F      -0.03      11.62      -2.69
F       1.15      13.94      -2.98
F      -0.86      15.81       2.04
F      -2.24      13.52       2.31
H       0.42      10.36       5.00
H      -0.82      11.38       5.77
H      -2.14      11.36       3.60
H      -0.86      10.43       2.83
H       0.75      12.27       3.09
H      -0.36      13.15       4.15
H      -1.23       9.74       5.24
C      -0.54      12.97       0.64
C      -0.60      12.01      -0.39
C      -0.01      12.42      -1.60
C       0.61      13.68      -1.78
C       0.69      14.60      -0.74
C       0.10      14.19       0.45
C      -0.09      14.65       1.87
C      -0.86      13.28       2.11
