20

H       2.15      13.19      11.82
H      -1.92      10.92      13.60
H       2.32      11.69      13.81
H      -2.09      12.41      11.60
C      -0.13      15.27       8.29
C       0.36       8.83      17.13
C       1.36      11.85      13.32
C      -1.13      12.25      12.09
C       0.21      11.21      13.83
C       0.02      12.89      11.58
C      -1.04      11.42      13.20
C       1.26      12.68      12.21
C       0.30      10.37      14.97
C      -0.07      13.73      10.45
C      -0.12      14.45       9.46
C       0.35       9.66      15.95
O       1.00      15.67       7.86
O      -0.77       8.43      17.55
O      -1.27      15.52       7.76
O       1.49       8.58      17.65
