13

O       5.97       0.69       6.56
C       6.07       1.67       5.78
O       5.15       2.97       4.01
C       4.48       4.42       2.24
O       3.58       4.82       1.46
H       4.63       0.99       4.33
H       3.17       3.52       3.69
O       7.05       2.48       5.67
H       3.99       2.15       5.54
H       3.86       2.38       2.48
O       5.68       4.87       2.35
C       4.86       1.91       4.90
C       4.08       3.26       3.12
