13

C       6.54      19.97      15.14
O       3.90      21.01      12.82
C       6.54      19.97      16.55
O       3.90      21.01      18.87
O       6.05      20.40      12.38
S       4.28      20.98      15.85
O       6.05      20.40      19.31
C       5.08      20.65      13.17
H       7.35      19.60      14.51
H       7.35      19.60      17.18
C       5.08      20.65      18.52
C       5.38      20.50      14.61
C       5.38      20.50      17.08
