21

C       5.44       1.76       9.81
C       4.40       0.89      10.11
C       6.29       4.08       9.31
N       0.72      -1.30      10.39
N       2.00       0.50      10.42
H       4.60      -0.17      10.33
H       2.62      -1.31       9.40
O       6.09       5.32       9.53
H      -0.91      -0.48      11.54
C       1.88      -0.79      10.00
H       0.70       1.79      11.57
O       7.40       3.61       8.87
C       0.06      -0.31      11.10
H       1.77       3.07       9.86
C       0.84       0.82      11.12
C       3.08       1.38      10.15
H       3.66       4.64       9.41
H       6.46       1.40       9.76
C       2.81       2.72       9.89
C       3.86       3.59       9.63
C       5.18       3.12       9.58
