28

O      -2.38      26.03       8.09
O      -4.65      26.10       7.96
H      -1.43      15.63       2.95
H      -1.42      17.83       4.13
H      -5.61      18.32       3.23
H      -5.60      16.14       2.02
O      -4.58      14.14       1.06
H      -1.40      21.72       6.15
O      -2.45      13.74       1.79
H      -5.63      22.13       5.39
H      -5.62      24.32       6.60
H      -1.41      23.92       7.34
C      -3.51      25.55       7.75
C      -3.52      14.45       1.70
C      -3.52      15.76       2.41
C      -2.34      16.23       3.01
C      -2.33      17.45       3.67
C      -3.51      18.22       3.76
C      -4.70      17.73       3.16
C      -4.69      16.52       2.49
C      -3.51      19.47       4.43
C      -3.51      20.54       5.02
C      -3.51      21.78       5.69
C      -2.32      22.29       6.25
C      -2.32      23.51       6.91
C      -3.51      24.25       7.04
C      -4.71      23.74       6.49
C      -4.71      22.53       5.82
