20

N      16.13       9.99       2.48
C      15.56       9.05       0.35
H      15.12       8.22      -0.20
H      18.28      11.08      -4.36
C      17.42      10.67      -3.83
C      16.67      11.05       1.85
H      17.10      11.82       2.49
C      15.34       9.67      -3.98
H      14.56       9.29      -4.64
C      15.57       9.02       1.74
H      15.13       8.19       2.30
C      16.71      11.15       0.46
H      17.15      12.03       0.00
H      18.19      11.10      -1.88
C      17.35      10.70      -2.44
H      14.28       9.26      -2.16
C      16.16      10.13      -0.32
C      15.20       9.66      -2.60
C      16.23      10.17      -1.80
N      16.44      10.16      -4.60
