27

O      14.01       8.29      20.15
O      15.15       6.32      20.04
O      19.58      10.46      18.18
O      23.02      11.19      12.94
H      17.44       6.55      19.18
H      19.46       7.83      18.42
H      17.17      11.46      18.43
H      15.15      10.18      19.20
H      19.02      12.63      16.82
H      20.18      13.32      14.70
H      22.30       9.59      14.63
H      21.15       8.89      16.75
O      21.93      13.20      13.02
C      15.02       7.57      19.85
C      16.18       8.30      19.24
C      17.39       7.62      19.00
C      18.51       8.33      18.57
C      18.42       9.71      18.40
C      17.21      10.39      18.58
C      16.09       9.68      19.01
C      20.04      10.73      16.90
C      19.73      11.96      16.32
C      20.37      12.35      15.15
C      21.32      11.50      14.55
C      21.57      10.24      15.11
C      20.93       9.85      16.28
C      22.14      11.99      13.41
