22

O       1.05       4.09       4.20
O       2.90       3.43       3.07
H       1.13      -0.80       9.46
H       2.03       0.70       9.13
H       2.90      -0.83       9.45
H       1.13       0.80       2.15
H       2.03      -0.70       2.48
H       2.90       0.83       2.15
C       1.97      -3.25       7.68
C       1.97       3.25       3.93
C       2.01      -0.69       7.49
C       2.01       0.69       4.11
C       1.97      -1.97       6.94
C       1.97       1.97       4.66
C       1.94      -0.27       5.16
C       1.94       0.27       6.45
C       2.02      -0.38       8.96
C       2.02       0.38       2.65
S       1.88      -1.99       5.21
S       1.88       1.99       6.40
O       1.05      -4.09       7.41
O       2.90      -3.43       8.54
