20

C       1.45       8.16       2.38
C      12.14       8.46       1.48
C       1.77       9.55       0.68
H       2.17      10.24      -0.06
C      11.35       9.61       1.23
C       2.44       8.97       1.80
H      11.83      11.24      -0.26
H       1.51       7.51       3.26
N       0.51       9.13       0.61
H      11.96       7.64       2.16
N      13.17       9.60      -0.10
N       0.32       8.27       1.65
N      13.21       8.47       0.67
C       3.78       9.17       2.14
C      10.05       9.84       1.71
C       4.98       9.41       2.27
C       8.85       9.85       2.01
C       6.31       9.62       2.31
C       7.53       9.78       2.23
C      12.07      10.30       0.23
