16

C      -2.21       0.39      12.98
C      -4.83      -0.39      13.32
H      -1.17       0.70      12.84
H      -5.87      -0.70      13.45
O      -4.91      -0.14       9.70
C      -5.32      -0.33      10.91
O      -2.13       0.14      16.60
C      -1.72       0.34      15.39
O      -6.52      -0.70      11.15
C      -4.37      -0.13      12.02
O      -0.52       0.71      15.15
C      -2.67       0.14      14.28
O      -2.45       0.54      10.64
C      -3.01       0.28      11.84
O      -4.59      -0.54      15.66
C      -4.03      -0.27      14.46
