30

O       6.77       3.09       5.57
H       8.41       3.64       0.72
H       8.39       1.44      -1.82
H      11.35       4.24       0.70
H      11.31      -0.87       0.14
H       9.60       3.81      -1.77
H      11.37       3.76      -1.63
H       7.63       4.21       3.36
H       7.79       2.58       2.69
H       9.40       1.78       6.86
H       9.36       3.52       7.15
H       9.80       2.73       4.64
C      10.22       5.82      -0.18
C      10.33       2.03      -0.90
C       9.30       1.19      -1.28
C      10.39       4.34       0.19
C      10.79      -0.00      -0.25
C       9.54       3.85       2.41
C      10.44       3.50      -1.12
C       8.34       3.37       3.23
C       8.01       2.89       5.61
C       8.73       2.64       6.94
N      11.27       1.25      -0.24
N       9.35       3.86       1.08
N       9.60      -0.09      -0.86
N       7.76       2.45       8.03
N       8.80       2.94       4.53
O       9.00       6.24      -0.16
O      11.21       6.50      -0.51
O      10.60       4.18       2.98
