43

N      16.61      -2.85       5.66
N      17.86      -2.89       6.22
H      19.15       1.29      -5.92
H      15.64      -1.63       4.22
H      19.62      -1.71       5.92
N      22.18       2.42      -5.80
N      20.51       3.75      -0.05
H      16.93       1.19      -1.25
H      16.44       0.55       1.11
O      20.00       3.03       2.64
H      22.46       3.12      -3.82
H      20.25       3.48       4.59
H      18.65       2.78       4.24
H      19.61       5.60       3.45
H      18.05       4.90       2.99
H      17.39       4.71       5.41
H      17.83       6.38       5.04
H      18.98       5.34       5.91
H      20.53       3.90      -1.05
H      20.25       5.56       1.07
H      21.72       5.42       0.08
H      21.59       4.51       1.60
C      20.09       1.74      -5.61
C      16.54      -1.84       4.79
C      18.57      -1.87       5.66
C      17.77      -1.15       4.75
C      17.26       1.22       0.87
C      18.14       1.63       1.91
C      19.15       2.58       1.65
C      19.44       2.95       0.31
C      18.68       2.35      -0.74
C      17.54       1.57      -0.44
C      18.08       0.86       3.10
C      19.16       2.43      -2.06
C      19.72       2.35      -3.15
C      18.03      -0.05       3.92
C      21.79       2.66      -4.54
C      20.46       2.25      -4.35
C      19.41       3.50       3.88
C      18.82       4.90       3.77
C      18.22       5.35       5.10
C      21.04       4.86       0.73
N      21.12       1.85      -6.48
