28

O      27.33       8.15      12.05
O      27.62       9.24      10.07
H      27.02      17.82      18.52
H      27.92      19.87      14.81
H      27.07       9.61      14.00
H      27.87      11.67      10.28
O      27.18      20.26      18.70
O      27.76      21.32      16.77
F      27.96      17.68      13.38
F      26.98      15.45      17.44
F      27.92      14.04      11.36
F      27.02      11.79      15.43
C      27.47       9.20      11.34
C      27.47      20.29      17.46
C      27.47      18.98      16.74
C      27.22      17.80      17.45
C      27.22      16.60      16.76
C      27.47      16.50      15.37
C      27.72      17.73      14.71
C      27.73      18.95      15.36
C      27.47      15.28      14.70
C      27.47      14.21      14.11
C      27.47      12.98      13.43
C      27.25      11.75      14.09
C      27.25      10.53      13.45
C      27.47      10.50      12.06
C      27.70      11.69      11.35
C      27.69      12.89      12.04
