36

N       5.58       5.29       6.24
N       9.33       9.31       0.66
N       9.47       8.59      -0.38
H       6.27       4.75       4.33
N       8.80      13.12      -6.50
N       8.74      12.00      -7.26
N       5.67       6.43       7.01
H      10.45      12.37      -2.85
H       9.38      13.56      -4.52
H      10.36      11.18      -0.67
H       8.66      10.47       2.85
H       7.50       9.45       4.81
H       9.34       8.72      -4.88
H       8.91       6.62       0.96
H       9.33       7.53      -2.69
H       7.81       5.58       2.92
H       9.25       9.97      -6.95
H       6.57       8.32       6.76
C       9.54      11.42      -5.23
C       6.38       7.34       6.32
C       6.24       5.52       5.09
C       6.78       6.82       5.08
C       9.28      12.80      -5.29
C       7.54       7.44       4.00
C       9.19      10.97      -6.52
C       7.98       6.66       2.91
C       8.61       7.22       1.82
C       8.84       8.61       1.78
C       8.47       9.39       2.89
C       7.82       8.82       3.98
C      10.16      10.65      -1.60
C      10.19      11.31      -2.82
C       9.79       9.30      -1.55
C       9.83      10.65      -4.03
C       9.60       9.26      -3.97
C       9.58       8.59      -2.75
