28

C       7.11       2.69      14.46
H      10.39      -4.79      14.36
H       6.07      -4.73      14.53
F       5.90      -2.12      14.56
F      10.64      -2.19      14.42
F       5.94       2.00      14.43
F      10.68       2.04      14.57
H      10.45       4.64      14.59
H       6.13       4.61      14.42
O       7.11      -6.99      14.64
C       8.22      -6.41      14.41
C       8.27       6.28      14.49
O       7.16       6.84      14.24
C       8.29       4.78      14.50
C       8.23      -4.91      14.44
C       9.46      -4.23      14.41
C       9.45      -2.85      14.44
C       8.27      -2.08      14.49
C       7.06      -2.82      14.52
C       7.02      -4.20      14.50
C       8.29      -0.68      14.50
C       8.31       0.54      14.50
C       8.31       1.95      14.50
C       9.50       2.71      14.54
C       9.51       4.09      14.55
O       9.37       6.87      14.73
C       7.08       4.07      14.45
O       9.32      -6.99      14.15
