28

H      17.36       2.14       4.53
H      18.03       2.73       6.06
H      19.11       2.38       4.70
H      17.28       5.92       7.24
H      17.93       4.27       7.17
H      19.03       5.66       7.11
H      18.41       8.84       3.19
H      17.84       8.23       1.64
H      16.68       8.63       2.92
H      18.66       5.76       0.47
H      17.12       6.63       0.61
H      17.13       4.86       0.52
O      19.08       2.81       1.76
O      16.82       2.59       1.93
O      16.73       8.26       5.92
O      19.01       8.31       5.80
C      17.93       3.17       2.18
C      17.88       4.39       3.05
C      17.98       4.20       4.44
C      18.12       2.79       4.97
C      17.95       5.34       5.27
C      18.05       5.28       6.77
C      17.85       6.60       4.65
C      17.86       7.82       5.53
C      17.76       6.79       3.26
C      17.67       8.19       2.71
C      17.76       5.64       2.44
C      17.66       5.73       0.93
