24

H       6.21       2.18      19.21
H       7.81       0.33      23.46
H       9.24       0.27      21.03
H       4.78       2.24      21.64
C       7.17       5.10      25.18
C       6.84      -2.59      17.48
C       6.56       1.78      20.16
C       7.46       0.73      22.51
C       7.86       2.21      20.91
C       6.16       0.30      21.75
C       7.16       4.12      24.14
C       6.85      -1.61      18.53
C       5.76       1.79      21.50
C       8.25       0.72      21.16
C       7.06       2.25      22.29
C       6.96       0.26      20.38
C       7.12       3.26      23.28
C       6.90      -0.74      19.39
I       9.17       3.73      20.26
I       4.84      -1.22      22.41
O       6.03       5.48      25.61
O       7.98      -2.97      17.05
O       8.31       5.49      25.60
O       5.70      -2.98      17.06
