32

C       4.68       8.02       3.39
C       2.15       6.44       2.47
H       3.33       8.63       1.82
C       1.53      11.86       3.99
H       3.93      10.58       3.31
C       1.80      11.02       1.63
H       3.05       9.81       4.64
C       1.72       6.81       1.08
H       0.92       9.96       3.27
C       2.48       6.46      -0.04
H       1.43       5.75       2.93
C       0.55       7.56       0.87
H       3.12       5.91       2.44
C       0.18       7.91      -0.42
H       0.58      12.35       3.71
C       2.05       6.86      -1.31
H       2.34      12.59       3.89
H       1.47      11.57       5.05
N       2.29       7.60       3.38
H       0.86      11.50       1.34
N       0.92       7.56      -1.50
H       1.93      10.15       0.97
O       4.73       7.49       4.54
H       2.62      11.72       1.42
O       5.67       8.18       2.62
H       3.41       5.90       0.05
H      -0.08       7.90       1.70
H      -0.73       8.47      -0.62
H       2.65       6.63      -2.19
C       3.32       8.55       2.92
C       3.07       9.93       3.55
C       1.77      10.63       3.11
