15

C       7.85      16.88      12.18
C       5.77      18.02      12.60
N       4.41      20.45      14.75
H       4.12      17.26      11.41
C       5.18      17.18      11.64
N       7.26      16.04      11.30
H       5.52      15.51      10.30
C       4.97      18.98      13.35
H       7.64      18.51      13.57
N       3.63      19.14      13.19
C       5.95      16.21      11.02
N       3.32      20.06      14.08
C       7.14      17.87      12.84
N       5.47      19.79      14.31
H       8.90      16.71      12.37
