18

S      22.14      13.39      18.30
O      25.31      11.22      18.78
O      24.54      12.50      17.05
C      24.55      12.09      18.27
S      21.34      13.62      22.39
C      23.34      12.73      20.51
C      20.12      14.33      20.17
C      18.89      14.90      22.33
C      23.50      12.69      19.13
C      20.00      14.35      21.54
C      21.34      13.72      19.79
C      22.11      13.29      20.90
N      24.33      12.35      21.52
O      23.85      12.02      22.62
O      17.88      15.35      21.69
O      25.53      12.44      21.25
H      19.37      14.74      19.50
O      19.04      14.88      23.60
