38

C       3.44      -0.64       2.18
C       2.58       0.08       3.03
C       1.89      -0.54       4.07
C       4.64       1.39      -1.63
H       0.61      -1.00       6.78
C       4.45       2.02      -2.85
C       0.83      -3.94       5.35
C       4.09      -0.73      -2.64
C       3.89      -0.09      -3.86
C       4.39       0.01      -1.47
C       3.91      -0.00       0.97
C       4.26      -0.64      -0.18
C       3.99       1.30      -3.98
C       1.24      -2.59       5.31
C       3.26       3.39      -5.29
C       3.05       1.47      -6.38
N      -0.13      -2.96       7.07
N       0.01      -4.15       6.39
H       3.20      -3.67       3.76
H       4.62       3.09      -2.93
H       3.57      -0.69      -4.71
H       4.27      -1.73      -0.19
H       2.39       1.14       2.83
H       4.96       1.98      -0.77
H       3.45       4.20      -4.60
H       1.17       0.03       4.66
H       3.79       1.09       0.94
H       4.39      -2.57       1.91
H       3.94      -1.80      -2.55
N       2.66       3.63      -6.47
H       1.06      -4.74       4.65
N       2.53       2.45      -7.14
H       3.06       0.45      -6.73
C       0.59      -2.03       6.42
C       3.53       2.01      -5.17
C       2.06      -1.92       4.32
C       3.00      -2.62       3.54
C       3.68      -2.00       2.50
