18

N       5.25       4.41       9.43
C       8.75       5.34       9.38
C       9.98       5.38       9.37
C      11.32       5.34       9.26
H       6.67       6.92       7.97
C      12.53       5.23       9.06
C       6.46       6.03       8.55
N      15.81       4.89       7.58
H       6.80       3.39      10.47
N      15.71       3.72       8.28
H      14.58       6.61       7.38
C       6.52       4.22       9.83
N       5.22       5.53       8.64
Cl      14.03       2.43       9.90
C       7.36       5.22       9.29
C      14.72       5.64       7.83
C      14.55       3.73       8.95
C      13.85       4.94       8.70
