32

H       9.99      15.05       0.93
H       7.62      20.69       0.31
H       6.54      19.60      -0.59
H       8.27      19.69      -1.00
H       8.33      13.24      -1.75
H       8.26      11.34      -0.31
H       7.61      12.34       1.00
H       9.34      12.44       0.59
H       5.89      16.98      -0.93
H       7.55      18.80       1.75
C       7.93      15.87      -2.84
C       7.95      16.16       2.84
C       9.04      16.66      -0.52
C       6.84      15.38       0.52
C       9.08      15.47       0.51
C       6.80      16.57      -0.51
C       7.95      16.15       1.35
C       7.93      15.89      -1.35
C       7.88      17.35       0.37
C       8.00      14.68      -0.37
C      10.18      17.30      -1.08
C       5.70      14.73       1.08
C       7.55      19.71      -0.17
C       8.33      12.33       0.17
N      11.11      17.84      -1.54
N       7.99      13.36      -0.80
N       7.89      18.67       0.80
N       4.77      14.20       1.54
O       7.77      17.01      -3.40
O       8.11      15.03       3.40
O       8.11      14.75      -3.42
O       7.77      17.29       3.42
