22

H       5.95       7.00       4.73
H       6.03       7.00       2.25
H       1.77       7.00       4.72
H       6.05       7.00      -4.72
H       1.88       7.00      -4.73
H       1.79       7.00      -2.25
C       5.03       7.00       4.15
C       5.07       7.00       2.76
C       3.87       7.00       2.02
C       2.67       7.00       2.76
C       2.70       7.00       4.15
C       3.89       7.00       0.61
C       3.93       7.00      -0.61
C       3.95       7.00      -2.02
C       5.15       7.00      -2.76
C       5.12       7.00      -4.15
C       2.79       7.00      -4.15
C       2.75       7.00      -2.76
N       3.86       7.00       4.83
N       3.96       7.00      -4.83
Cl       1.15       7.00       1.95
Cl       6.67       7.00      -1.95
