20

H       5.26      15.21       7.44
H       5.23      16.78       5.50
H       1.24      15.48       4.50
H       1.27      13.91       6.43
O       2.19      11.67      10.78
O       4.42      11.31      10.48
O       2.11      19.52       1.58
O       4.32      19.08       1.20
C       3.30      11.86      10.20
C       4.37      16.15       5.71
C       3.23      16.24       4.88
C       2.11      15.42       5.15
C       2.13      14.54       6.22
C       3.27      14.46       7.06
C       4.39      15.27       6.79
C       3.22      17.14       3.79
C       3.28      13.56       8.15
C       3.30      12.78       9.09
C       3.20      17.94       2.87
C       3.21      18.91       1.81
