20

C       2.04       8.55       0.35
N       1.47       7.61       2.48
H       2.49       9.38      -0.20
H      -0.68       6.52      -4.36
C       0.18       6.93      -3.83
C       0.93       6.55       1.85
H       0.51       5.78       2.49
C       2.26       7.93      -3.98
H       3.04       8.31      -4.64
C       2.03       8.58       1.74
H       2.47       9.41       2.30
C       0.89       6.45       0.46
H       0.45       5.57       0.00
H      -0.59       6.50      -1.88
C       0.25       6.91      -2.44
H       3.32       8.34      -2.16
C       1.45       7.47      -0.32
C       2.40       7.95      -2.60
C       1.37       7.44      -1.80
N       1.16       7.44      -4.60
