36

C       8.07       8.92       7.05
C       8.06       8.94       8.27
C       8.03       8.94       9.68
C       9.22       8.67      10.41
C       9.18       8.67      11.81
C       7.98       8.92      12.48
C       6.80       9.18      11.76
C       6.82       9.21      10.37
H      10.23       9.24       2.99
H       6.04       8.33       2.94
H      10.08       8.47      12.40
H       5.88       9.37      12.32
H       5.83       8.09       6.59
H       4.99       7.88       5.13
H      10.32       9.74       6.60
N      10.46       9.37       5.67
H      11.20       9.84       5.15
N      10.41       8.46       9.72
N       5.66       9.43       9.63
H      10.30       8.14       8.76
H      11.13       7.96      10.23
H       5.81       9.78       8.69
H       4.92       9.92      10.13
N       5.72       8.39       5.62
O       6.80       9.04      14.53
O       9.06       8.83      14.59
O       9.31       8.84       0.79
O       7.05       8.70       0.74
C       7.94       8.93      13.98
C       8.17       8.77       1.35
C       8.14       8.78       2.85
C       9.31       9.06       3.55
C       9.30       9.12       4.94
C       8.09       8.88       5.64
C       6.90       8.58       4.92
C       6.93       8.54       3.52
