16

C      21.65      12.74       4.36
C      22.79      13.34       4.91
C      23.74      13.92       4.07
C      20.61      12.15       5.27
O      24.31      15.76       1.43
O      25.56      13.85       1.44
O      20.73      10.92       5.55
O      19.71      12.95       5.66
Cl      20.07      11.98       2.28
Cl      25.14      14.67       4.75
H      22.27      13.30       1.05
H      22.93      13.37       5.99
C      24.57      14.56       1.78
C      23.56      13.91       2.68
C      22.42      13.31       2.13
C      21.48      12.72       2.97
