26

C      13.98      21.19      15.08
C      12.55      21.76      15.10
C      12.35      22.62      16.35
C      13.40      23.76      16.40
O      10.53      20.74      15.85
O      11.68      19.71      14.18
O      16.14      24.80      14.15
O      15.24      25.74      16.01
H      11.33      23.02      13.80
H      12.54      22.04      12.95
H      14.00      23.86      13.00
H      12.83      24.80      13.94
H      15.63      22.33      14.17
H      15.69      22.27      15.93
H      14.11      20.56      14.20
H      14.13      20.55      15.96
H      11.33      23.03      16.35
H      12.42      21.98      17.24
H      14.05      23.66      17.29
H      12.92      24.74      16.49
C      11.51      20.64      15.04
C      15.30      24.84      15.11
C      12.37      22.65      13.84
C      13.37      23.84      13.89
C      14.28      23.72      15.14
C      15.01      22.36      15.08
