70

C      11.96       4.51      16.04
C      11.96       4.51      10.24
C      11.96       4.51      14.56
N      11.96       4.51       5.99
O      17.85      11.37       0.45
O      12.93       5.11      16.63
O      16.25      12.91       0.95
O       6.07      -2.35       0.45
O      11.00       3.91      16.63
O       7.67      -3.88       0.95
H      13.49       4.23       3.83
H      17.48       9.16       1.38
H      13.47       6.05      14.38
H      16.21       7.41       2.59
H      13.42       6.11      11.93
H      13.84       5.56       7.57
H      13.03      10.23       3.34
H      14.32      11.98       2.15
H      14.55       6.03       2.54
H      13.85       5.55      10.02
H      11.75       7.15       6.48
H      12.85       8.96       5.21
H      10.44       4.79       3.83
H       6.45      -0.14       1.38
H      10.46       2.98      14.38
H       7.71       1.61       2.59
H      10.51       2.91      11.93
H      10.09       3.46       7.57
H      10.89      -1.21       3.34
H       9.60      -2.96       2.15
H       9.37       3.00       2.54
H      10.07       3.48      10.02
H      12.17       1.88       6.48
H      11.07       0.06       5.21
C      16.74      11.72       0.98
C      15.97      10.68       1.69
C      13.35       5.26       4.13
C      12.57       5.56       5.26
C      16.50       9.39       1.81
C      12.80       5.38      13.84
C      15.78       8.41       2.49
C      14.53       8.69       3.06
C      13.80       7.63       3.79
C      12.78       5.39      12.45
C      13.01       5.11       8.12
C      14.01       9.99       2.93
C      14.72      10.98       2.26
C      13.95       6.28       3.41
C      13.00       5.11       9.50
C      12.38       6.91       5.62
C      12.99       7.92       4.90
C       7.18      -2.70       0.98
C       7.95      -1.66       1.69
C      10.57       3.76       4.13
C      11.36       3.46       5.26
C       7.42      -0.36       1.81
C      11.12       3.65      13.84
C       8.14       0.62       2.49
C       9.40       0.34       3.06
C      10.12       1.39       3.79
C      11.14       3.63      12.45
C      10.91       3.91       8.12
C       9.91      -0.97       2.93
C       9.20      -1.95       2.26
C       9.97       2.74       3.41
C      10.92       3.92       9.50
C      11.55       2.12       5.62
C      10.93       1.10       4.90
C      11.96       4.51       7.39
C      11.96       4.51      11.72
