13

O       5.00       7.35       1.48
C       9.25       6.78       5.57
H       7.25       8.39       2.42
O      10.11       7.35       6.28
O       6.13       5.52       2.23
C       6.68       7.70       3.08
H       7.86       8.39       5.33
O       7.56       6.92       3.88
O       8.99       5.52       5.52
H       6.01       8.30       3.71
H       9.10       8.30       4.04
C       5.86       6.78       2.19
C       8.43       7.70       4.68
