32

C       5.68       4.74       5.95
C       7.79       4.92       5.44
C       7.32       3.84       4.75
C       5.12       1.45       5.54
C       6.50       0.83       5.75
C       5.11       2.65       4.60
C       4.36       5.03       6.46
C       2.25       5.56       6.55
C       2.73       5.62       7.84
C       4.92       3.74       9.51
C       3.54       3.25       9.94
C       4.94       5.16       8.94
N       6.78       5.48       6.18
N       5.98       3.73       5.07
N       3.26       5.20       5.70
N       4.06       5.28       7.77
H       8.78       5.37       5.43
H       7.78       3.10       4.11
H       4.70       1.72       6.51
H       4.46       0.67       5.12
H       5.46       2.37       3.60
H       4.09       3.05       4.49
H       1.26       5.80       6.17
H       2.26       5.80       8.80
H       5.34       3.03       8.79
H       5.58       3.71      10.40
H       4.58       5.88       9.69
H       5.95       5.45       8.65
O       7.34       0.77       4.81
O       6.75       0.41       6.94
O       2.71       4.03      10.46
O       3.29       2.01       9.71
