30

C       1.26      -5.30      21.93
C       1.23      -4.13      22.67
C       1.90      -2.97      22.22
C       2.58      -2.99      20.97
N       1.94      -7.52      20.42
N       1.94      -6.41      19.82
O       2.79      -0.86      22.80
H       0.70      -9.86      16.62
H       0.76      -7.73      17.96
O       2.79     -13.08      17.43
O       0.93      -1.58      23.88
H       0.76      -6.21      22.27
O       0.93     -12.36      16.35
H       0.70      -4.08      23.62
H       3.00      -4.15      19.20
H       3.00      -9.79      21.03
H       3.28     -12.68      19.02
H       3.28      -1.26      21.21
O       3.26     -12.01      19.75
C       1.87      -1.75      23.02
O       3.26      -1.93      20.48
C       1.87     -12.19      17.21
C       1.90     -10.97      18.01
C       1.23      -9.81      17.57
C       1.26      -8.64      18.31
C       1.90      -8.65      19.56
C       2.51      -9.80      20.06
C       2.58     -10.95      19.27
C       2.51      -4.14      20.18
C       1.90      -5.29      20.67
