28

O       7.32      10.92      31.91
O       9.59      10.91      31.90
O       9.59      24.76      31.93
O       7.32      24.76      31.94
H       6.30      13.15      31.91
H      10.61      13.14      31.91
H       6.30      22.53      31.93
H      10.62      22.53      31.93
F      10.83      15.75      31.91
F       6.09      15.75      31.90
F      10.83      19.92      31.92
F       6.09      19.92      31.92
C       8.45      11.49      31.90
C       8.46      24.18      31.94
C       8.46      12.99      31.91
C       7.24      13.69      31.91
C       7.26      15.07      31.91
C       8.46      15.82      31.91
C       9.65      15.07      31.91
C       9.67      13.69      31.91
C       8.46      17.23      31.91
C       8.46      18.45      31.91
C       8.46      19.85      31.92
C       7.26      20.60      31.92
C       7.24      21.98      31.93
C       8.46      22.68      31.94
C       9.68      21.99      31.93
C       9.66      20.60      31.92
