30

H      14.66       1.59      11.33
H       9.88       4.73      15.65
H       9.10       3.38      12.61
H       8.54       3.89      14.09
H      10.13       0.50      11.47
H       9.46       1.39      12.85
H      15.46       4.12      13.45
H      16.01       2.81      12.59
H      14.42       4.43      16.56
H      15.12       3.36      15.32
C      12.47       0.48      10.48
C      12.08       5.27      16.93
C      11.43       1.76      12.41
C      13.83       1.87      11.99
C      14.05       2.68      13.07
C      12.94       3.08      13.89
C      13.13       3.83      15.12
C      10.71       4.21      15.18
C      10.50       3.39      14.09
C      11.61       2.74      13.47
C      12.56       1.36      11.65
C      11.99       4.41      15.74
N       9.17       3.23      13.61
N      10.20       1.22      12.19
N      15.39       3.10      13.35
N      14.37       3.95      15.67
O      11.31       0.12      10.04
O      13.23       5.58      17.41
O      13.57       0.14       9.92
O      10.97       5.69      17.43
