22

H      14.01      12.22      12.38
C      11.29      15.40      17.25
C      11.54      16.72      17.65
C      11.69       9.90      12.33
C      12.32      10.91      13.10
H      13.21      13.11      14.41
H      10.89      12.83      16.47
H      11.08      10.93      14.88
N      13.21      10.82      11.03
H      12.42      17.33      17.48
H      10.88       9.23      12.60
N      10.48      17.22      18.32
N      12.23       9.87      11.09
C      13.28      11.44      12.22
N       9.51      16.23      18.37
F       9.24      14.07      17.64
F      13.18      15.17      15.87
C      10.00      15.17      17.74
C      12.08      14.53      16.40
C      11.77      13.28      16.00
C      11.91      11.43      14.38
C      12.39      12.59      14.91
