24

H      13.52      10.10      14.71
H      15.83       9.98      15.01
H      15.79       6.23      15.30
H      13.56       6.40      15.57
H      15.84       7.78      11.97
H      13.52       7.48      12.02
H      15.99       6.25      12.84
H      13.67       6.10      13.11
H      15.99      10.01      13.25
H      13.66       9.83      12.97
C      15.52       9.48      14.09
C      13.98       9.46      13.95
C      15.54       7.29      15.39
C      13.97       7.40      15.45
C      16.05       8.02      14.11
C      13.46       8.01      14.12
C      13.99       7.14      12.95
C      15.52       7.25      12.87
C      12.01       8.00      14.09
C      17.50       8.02      14.08
N      10.86       7.98      14.02
N      18.65       8.02      13.99
Cl      16.39       7.85      16.84
Cl      13.34       8.34      16.83
