20

O      11.41       5.29      12.39
O      12.93       2.00       0.92
O      13.95       4.04       0.81
O      10.40       3.27      12.69
H      14.09       3.42       8.28
H      14.47       3.42       5.83
H      10.21       3.60       5.16
H       9.84       3.60       7.62
C      11.50       3.73      10.70
C      13.25       3.45       7.59
C      13.46       3.45       6.22
C      11.06       3.55       5.85
C      10.85       3.54       7.22
C      11.94       3.50       8.11
C      12.37       3.50       5.33
C      12.59       3.48       3.93
C      11.71       3.59       9.51
C      12.81       3.41       2.74
C      11.10       4.13      12.02
C      13.24       3.13       1.39
