28

O       5.99       8.12      10.84
O       8.16       8.77      10.97
H       4.88       7.99      13.03
H       9.14       8.53      13.18
H       4.48       8.81      22.40
H       8.77       8.99      22.55
C       7.01       8.29      12.97
C       5.79       8.13      13.62
C       5.74       8.18      15.01
C       6.90       8.36      15.79
C       8.14       8.45      15.09
C       8.19       8.42      13.71
C       6.84       8.49      17.19
C       6.79       8.65      18.40
C       6.73       8.79      19.79
C       5.49       8.78      20.49
C       5.44       8.83      21.88
C       6.63       8.87      22.62
C       7.86       8.94      21.96
C       7.91       8.91      20.57
Cl       4.02       8.66      19.59
Cl       9.60       8.61      15.99
Cl       4.21       8.03      15.80
Cl       9.44       8.99      19.78
C       6.59       8.77      24.12
C       7.06       8.39      11.47
O       7.68       8.46      24.68
O       5.46       8.97      24.68
