36

C       7.38      15.29      11.30
C       7.27      16.67      11.45
C       7.54      17.50      10.33
H       7.24      23.89      11.58
O       8.46      12.75       8.94
O       5.71      26.04       8.64
O       7.31      12.54      10.90
O       6.79      26.07      10.64
H       7.14      14.63      12.14
H       7.41      19.38      11.43
H       6.14      21.35       7.45
H       8.26      17.55       8.30
H       5.75      23.81       7.55
H       6.93      19.33       8.40
H       7.60      21.45      11.51
H       5.18      18.49      12.01
H       4.67      16.87      12.52
H       5.05      18.10      13.74
H       6.93      16.46      13.54
H       7.45      18.07      13.08
H       8.47      15.08       8.09
C       7.08      19.77       9.39
C       7.36      18.95      10.43
C       7.79      14.71      10.10
C       6.88      21.21       9.48
C       6.37      21.91       8.36
C       6.15      23.28       8.41
C       7.86      13.23       9.97
C       6.31      25.48       9.62
C       6.47      24.00       9.57
C       6.99      23.32      10.68
C       7.18      21.95      10.64
C       6.80      17.23      12.78
C       7.98      16.91       9.13
C       5.34      17.70      12.76
C       8.12      15.53       9.01
