30

H      10.87       6.99       1.74
H      13.03       6.27       2.78
H      10.87       9.46      -1.76
H      13.03      10.20      -2.78
H      17.66       9.46      -1.76
H      15.50      10.20      -2.78
H      17.66       6.99       1.74
H      15.50       6.27       2.78
O       8.67       8.85      -0.96
O      19.86       7.54       0.90
O      19.86       8.85      -0.96
C       9.25       8.19      -0.03
O       8.67       7.54       0.90
C      19.28       8.19      -0.03
C      11.44       7.52       0.98
C      12.84       7.52       1.01
C      13.58       6.81       2.02
C      11.44       8.93      -1.00
C      12.84       8.95      -1.01
C      13.58       9.66      -2.01
C      17.09       8.93      -1.00
C      15.69       8.95      -1.01
C      14.95       9.66      -2.01
C      17.09       7.52       0.98
C      15.69       7.52       1.01
C      14.95       6.81       2.02
C      10.74       8.21      -0.02
C      13.55       8.24       0.00
C      17.79       8.21      -0.02
C      14.97       8.24       0.00
