36

H      10.86      18.62       7.81
H       6.56      18.51       7.62
H      10.60      18.51      12.20
H       6.30      18.64      11.96
N      11.27      18.64       5.25
N       6.37      18.48       5.05
N      10.76      18.46      14.78
N       5.86      18.68      14.51
O       7.06      18.48      16.81
O       9.31      18.64      16.92
O      10.03      18.55       2.95
O       7.78      18.77       2.90
H      11.34      18.61       4.24
H      12.08      18.67       5.84
H       6.38      18.65       4.05
H       5.52      18.59       5.58
H      10.73      18.59      15.79
H      11.62      18.57      14.26
H       5.78      18.54      15.51
H       5.06      18.57      13.90
C       8.22      18.56      16.24
C       8.88      18.64       3.55
C       8.83      18.59       5.02
C      10.03      18.61       5.82
C       9.95      18.60       7.22
C       8.70      18.57       7.87
C       7.52      18.54       7.11
C       7.56      18.55       5.71
C       8.63      18.58       9.29
C       8.55      18.58      10.51
C       8.46      18.58      11.92
C       9.63      18.54      12.69
C       9.58      18.53      14.10
C       8.30      18.57      14.78
C       7.11      18.61      13.96
C       7.21      18.61      12.56
