34

H       0.80      10.19      13.31
N      -0.75       8.37      15.46
O       7.55      10.12      11.32
H       9.69      10.32      12.14
H       9.33       6.85      14.69
H       7.21       6.73      14.29
H       5.04       5.76      14.97
H       4.85       9.95      11.33
H       2.61       6.07      15.22
H       2.71       9.30      12.35
H       0.35       6.58      15.67
H       6.21      11.69      10.94
H       6.32      10.44       9.65
H       7.69      11.58       9.93
C       0.50       9.38      13.97
C       9.82       9.50      12.83
C       9.63       7.73      14.13
C       8.89       8.52      13.22
C       7.46       8.38      12.94
C       2.49       7.76      13.84
C       4.52       6.53      14.39
C       3.17       6.71      14.53
C       3.21       8.51      12.92
C       4.61       8.38      12.78
C       5.30       7.41      13.58
C       6.71       7.44      13.62
C       6.76       9.26      12.05
C       5.38       9.25      11.97
C       0.28       7.55      15.18
C       1.14       8.15      14.24
C       6.89      11.00      10.41
N      -0.62       9.49      14.71
N      11.00       9.31      13.45
N      10.88       8.20      14.26
