24

H       1.22      10.11      11.51
H      -1.11      10.06      11.59
H      -1.07       6.57      10.21
H       1.26       6.60      10.16
H      -1.11       8.28       9.77
C      -0.68       9.33      12.29
H      -0.99       7.11      13.92
C       0.87       9.37      12.24
H       1.22       8.31       9.70
C      -0.69       7.56      10.48
C       0.86       7.58      10.44
H       1.35       7.19      13.87
H       1.29       9.65      13.22
C       1.40       7.97      11.84
C       0.94       6.92      12.88
C       2.85       8.00      11.80
H       1.35       5.94      12.62
C      -0.61       6.88      12.92
H      -1.05       9.59      13.29
C      -1.17       7.91      11.91
C      -2.62       7.89      11.95
H      -0.98       5.88      12.66
N       4.01       8.04      11.77
N      -3.78       7.88      11.97
