16

S      28.59      15.87      13.08
S      25.63      18.22      11.30
C      27.16      20.18      10.12
O      28.22      13.48      14.59
O      25.94      13.41      14.59
C      25.98      15.84      12.91
C      28.24      18.26      11.48
C      27.05      15.14      13.45
C      27.17      18.96      10.93
C      27.81      17.12      12.20
C      26.41      16.97      12.19
Cl      24.32      15.44      13.04
O      28.28      20.72       9.87
Cl      29.90      18.65      11.34
O      26.00      20.59       9.74
C      27.06      13.92      14.27
