32

N       5.06      16.49      22.42
N       5.01      17.24      23.50
N       2.90      16.28      24.07
N       2.95      15.53      22.98
Cl       6.43      14.45      17.81
Cl       6.43      16.88      26.21
O       3.27      12.01      16.92
O       5.49      11.68      17.24
H       2.51      13.45      21.69
H       5.88      15.70      20.23
H       1.94      18.48      25.24
H       1.82      19.87      27.32
H       5.86      18.73      28.29
C       4.36      12.15      17.56
O       2.65      20.66      29.52
O       4.89      20.44      29.75
C       3.35      12.79      19.81
C       3.27      13.62      20.94
C       4.18      14.67      21.08
C       5.17      14.88      20.12
C       5.23      14.06      19.00
C       4.31      13.00      18.80
C       3.98      17.04      24.35
C       4.07      15.58      22.23
C       2.79      18.54      25.92
C       2.73      19.32      27.07
C       3.84      19.40      27.91
C       5.00      18.68      27.62
C       5.05      17.87      26.48
C       3.95      17.82      25.60
C       3.79      20.23      29.15
Br       2.12      11.34      19.75
