34

H       4.14       5.22      10.81
H       3.06       4.59      15.49
H       8.34       4.56      10.57
H       9.64       2.76      11.54
H      10.29       4.40      11.68
H      10.81       3.15      12.81
H       9.15       4.67      13.92
H       8.59       3.01      13.84
H       1.20       3.98      14.18
H       1.35       5.72      14.52
H       0.40       5.17      13.13
H       2.59       6.03      12.36
H       7.29       4.14      15.28
H       2.42       4.33      11.98
C       5.19       4.36      15.51
C       6.23       4.98      10.59
C       5.26       4.27      17.00
C       7.52       4.33      12.55
C       3.87       4.76      13.50
C       6.19       5.33       9.13
C       7.45       4.62      11.21
C       3.95       4.56      14.86
C       5.06       4.99      11.33
C       6.35       4.29      14.76
C       5.07       4.72      12.72
C       6.33       4.44      13.35
C       8.81       3.89      13.21
C       9.95       3.53      12.26
C       2.54       5.04      12.82
C       1.31       4.97      13.72
O       4.18       4.11      17.65
O       7.27       5.21       8.46
O       6.43       4.37      17.52
O       5.07       5.74       8.66
