16

S      28.96      18.46      29.30
C      27.97      20.67      30.65
C      31.30      17.74      27.74
C      30.23      20.73      29.39
C      32.46      18.36      27.29
C      29.06      20.12      29.83
C      31.04      19.88      28.62
C      30.47      18.60      28.50
O      34.48      18.63      26.18
F      30.96      16.47      27.48
O      33.47      16.58      26.15
F      30.56      22.01      29.65
O      26.99      19.88      30.85
O      28.11      21.86      31.07
S      32.56      20.02      27.81
C      33.55      17.81      26.48
