16

C       3.36      10.21       7.68
H       2.45       9.63       7.50
C       3.33      11.59       7.75
C       5.75      10.24       8.10
H       6.68       9.68       8.24
O       5.73       7.46       8.01
H       2.40      12.14       7.62
O       3.48       7.41       7.74
H       6.63      12.20       8.33
O       5.60      14.42       7.99
O       3.34      14.36       8.21
C       4.60       8.02       7.87
C       5.72      11.63       8.15
C       4.51      12.31       7.99
C       4.57       9.52       7.87
C       4.48      13.81       8.07
