40

H       9.41       6.98       4.64
H       5.54       8.74      -4.78
N       9.49       6.50       2.00
N       5.05       8.18      -2.19
N       5.47       9.35       4.77
N      10.16       8.71      -4.53
N       5.42       9.16       1.95
N       9.91       8.16      -1.88
O       8.79       8.64      -6.87
O       6.57       7.93       6.91
O       6.65       9.37      -6.82
O       8.79       8.33       6.77
H       9.49       6.60       0.99
H      10.41       6.44       2.41
H       5.04       7.53      -1.40
H       4.28       8.01      -2.83
H       5.33       9.02       5.72
H       4.60       9.51       4.28
H      10.83       8.03      -4.17
H      10.18       8.77      -5.54
H       4.48       9.15       2.34
H       5.42       8.95       0.95
H      10.66       8.78      -2.19
H       9.75       8.24      -0.88
C       7.71       8.94      -6.25
C       7.65       8.12       6.24
C       8.54       7.25       2.69
C       6.29       8.29      -2.81
C       8.58       7.40       4.07
C       6.42       8.61      -4.16
C       7.55       8.05       4.76
C       7.68       8.73      -4.77
C       6.44       8.61       4.09
C       8.87       8.55      -4.02
C       6.41       8.52       2.68
C       8.75       8.29      -2.64
C       7.45       7.84       1.98
C       7.48       8.14      -2.04
C       7.43       7.83       0.58
C       7.41       7.92      -0.65
