16

C      13.05      11.67       8.82
C      12.87      10.45       9.67
H      10.95       9.91       8.85
O      11.98      12.14       8.23
C      11.73       9.63       9.57
C      11.62       8.49      10.36
H      10.76       7.83      10.28
O      14.17      12.22       8.74
C      12.63       8.17      11.28
H      14.51       8.75      12.14
O      11.56       6.14      12.00
H      14.75      10.78      10.65
C      13.75       9.01      11.40
O      13.54       6.74      12.92
C      13.88      10.13      10.59
C      12.53       6.93      12.11
