30

H       7.37      10.69       0.00
H      16.68      10.69      -0.00
H      11.08       8.62      -0.64
H      11.08      12.75       0.64
H      12.97      12.75      -0.64
H      12.97       8.62       0.64
C       8.46      10.69       0.00
C      15.59      10.69       0.00
C       8.45       8.22      -0.51
C       8.45      13.15       0.52
C      15.60      13.15      -0.51
C      15.60       8.22       0.52
C       9.17       9.52      -0.29
C       9.17      11.86       0.29
C      14.88      11.86      -0.29
C      14.88       9.52       0.29
C      11.29      10.69      -0.00
C      12.76      10.69      -0.00
C      10.57       9.53      -0.33
C      10.57      11.84       0.33
C      13.48      11.84      -0.33
C      13.48       9.53       0.33
O       9.07       7.34      -1.21
O       9.07      14.03       1.21
O      14.98      14.03      -1.21
O      14.98       7.35       1.21
O       7.31       8.11       0.04
O       7.31      13.26      -0.04
O      16.74      13.26       0.04
O      16.74       8.11      -0.04
