16

C       2.19      11.60       4.67
C       0.83      11.41       4.98
F      -0.79      12.12       6.61
F       3.81      10.88       3.04
C       1.52      13.77       7.83
S       2.98      12.67       5.77
S       0.04      10.34       3.88
C       1.51       9.23       1.82
O       2.62       8.98       1.26
O       2.67      14.19       8.18
O       0.40      14.02       8.39
O       0.35       8.81       1.47
C       0.46      12.16       6.11
C       2.57      10.85       3.54
C       1.50      12.89       6.65
C       1.52      10.11       3.00
