18

C      13.30       6.86      16.74
O      16.88       6.70      16.12
C      12.46       4.70      17.44
O      15.46       8.46      16.07
C      14.60       6.33      16.64
O      11.61       2.59      18.13
H      10.37       5.84      17.44
H      13.91       3.12      17.58
H      13.14       7.91      16.50
O      16.04       4.34      16.88
H      16.72       4.99      16.56
C      13.75       4.17      17.34
C      14.83       4.95      16.94
O      10.14       4.28      17.83
C      12.22       6.07      17.12
C      11.33       3.81      17.83
C      15.71       7.23      16.25
O      10.98       6.61      17.18
