39

F       4.77      16.38       6.49
F       4.78      17.24       4.48
F       5.25      15.11       4.78
F       6.22      18.67       6.66
F       8.34      18.55       6.10
F       6.83      18.94       4.57
H       7.59      14.05       5.52
H       8.22      16.08       9.98
H       7.47      17.50       8.13
H       6.11      16.42       2.76
H      11.03      16.05       3.27
H       9.61      16.23       5.28
O       9.03      11.91       6.36
O       7.50      11.31       7.83
O       7.83      12.44      10.37
O       9.28      14.00      10.98
O       8.00      16.90      -0.54
O       6.33      15.62       0.16
O      10.64      17.45       0.30
O      10.60      15.20       0.09
C       6.95      16.68       5.46
C       7.46      15.88       6.67
C       7.69      14.51       6.50
C       8.02      13.68       7.58
C       8.21      14.26       8.85
C       8.05      15.64       9.00
C       7.64      16.44       7.94
C       8.19      12.23       7.27
C       8.48      13.52      10.12
C       7.75      16.39       4.18
C       7.18      16.36       2.91
C       7.99      16.29       1.77
C       9.39      16.23       1.89
C       9.95      16.16       3.16
C       9.15      16.25       4.30
C       7.38      16.28       0.41
C      10.27      16.28       0.66
C       5.43      16.35       5.30
C       7.08      18.23       5.70
