19

H      -6.96       1.53      13.46
H      -9.73       0.79      12.48
H      -9.30       1.84      13.82
H      -9.77       2.60      10.99
H      -9.42       3.70      12.31
H      -7.04       3.55      11.97
H      -5.98       1.46      11.23
H      -7.52       0.89      10.53
C      -7.39      -0.45      12.94
C      -7.58       1.03      12.70
C      -9.03       1.57      12.79
C      -9.08       2.78      11.82
C      -7.65       2.93      11.28
C      -7.07       1.50      11.33
C      -7.47       3.57       9.92
O      -6.20      -0.89      12.76
O      -8.39      -1.13      13.32
O      -8.52       3.82       9.22
O      -6.27       3.79       9.57
