32

O      27.20       8.25      12.02
O      27.65       9.32      10.07
H      26.97      15.76      17.29
H      27.87      17.80      13.56
H      26.97      11.93      15.19
H      27.87      13.97      11.46
O      27.20      20.41      18.68
O      27.65      21.48      16.73
H      26.96      18.79      19.05
H      27.89      20.92      15.17
O      26.92      17.86      18.73
O      27.93      20.15      14.55
O      26.92       9.58      14.20
H      26.96       8.81      13.58
O      27.93      11.87      10.02
H      27.89      10.94       9.70
C      27.42       9.34      11.35
C      27.42      20.39      17.40
C      27.42      19.12      16.71
C      27.17      17.89      17.41
C      27.17      16.68      16.73
C      27.42      16.64      15.35
C      27.68      17.83      14.63
C      27.68      19.05      15.29
C      27.42      15.40      14.67
C      27.42      14.33      14.08
C      27.42      13.09      13.40
C      27.17      11.90      14.12
C      27.17      10.68      13.46
C      27.42      10.61      12.04
C      27.68      11.84      11.34
C      27.68      13.05      12.02
