45

C       4.28      13.28      19.36
C       4.94      12.13      18.69
C       4.80      11.98      17.30
C       5.35      10.89      16.65
C       6.03       9.90      17.39
C       6.17      10.05      18.78
C       5.64      11.16      19.43
C       6.56       8.71      16.69
C       6.89       7.58      14.75
C       7.58       6.68      16.72
C       6.75       7.50      13.28
C       5.82       8.32      12.62
C       5.68       8.25      11.24
C       6.52       7.40      10.50
C       7.46       6.60      11.15
C       7.55       6.62      12.54
C       6.41       7.38       9.01
C       8.18       5.56      17.47
C       8.53       4.38      16.79
C       9.08       3.32      17.48
C       9.29       3.41      18.87
C       8.96       4.59      19.55
C       8.42       5.66      18.85
C       9.87       2.23      19.57
H       4.23      12.74      16.75
H       5.25      10.76      15.58
H       6.69       9.27      19.34
H       5.72      11.27      20.51
H       5.21       9.00      13.21
H       4.94       8.85      10.71
H       8.13       5.98      10.56
H       8.26       5.99      13.07
H       8.35       4.33      15.71
H       9.36       2.40      16.97
H       9.15       4.67      20.62
H       8.19       6.60      19.36
N       6.41       8.68      15.35
N       7.48       6.55      15.38
N       7.14       7.75      17.42
O       3.32      13.87      18.75
O       4.63      13.65      20.54
O       5.35       7.82       8.45
O       7.39       6.94       8.31
O      10.30       1.26      18.85
O       9.94       2.17      20.85
