12

H       1.01       4.89      16.04
H      -2.96       5.64      15.02
H      -0.27       8.79      14.73
C      -1.94       6.01      15.10
O       2.14       8.62      15.90
O       2.90       6.49      15.70
C      -0.45       7.74      14.98
C       2.00       7.35      15.70
C       0.58       6.92      15.46
C       0.25       5.60      15.71
N      -1.00       5.14      15.53
N      -1.70       7.29      14.81
