20

C       1.51       6.96       9.10
H       3.51       6.53       9.85
C       0.77       7.58       8.08
C      -0.71       7.59       8.07
C      -1.45       6.92       7.08
H      -0.89       8.80       9.85
H       3.48       8.69       6.31
H      -3.41       8.80       9.78
H      -3.45       6.47       6.35
N       3.56       7.61       8.08
N      -3.50       7.64       8.06
Cl       0.74       6.11      10.39
Cl      -0.68       6.01       5.83
H       0.96       8.72       6.25
C       1.49       8.22       7.06
C      -1.42       8.27       9.06
C       2.88       8.22       7.09
C      -2.81       8.28       9.03
C       2.90       7.00       9.07
C      -2.84       6.97       7.11
