13

C      12.50      13.27       6.28
O       9.31      16.58       7.52
O       8.61      17.68       5.66
H      12.29      14.64       4.65
H      10.95      13.46       4.80
C      11.63      14.11       5.36
C      10.16      15.96       5.36
C       9.29      16.80       6.28
O      12.48      13.49       7.52
O      13.18      12.39       5.66
O      10.90      15.03       6.14
H       9.50      15.43       4.65
H      10.84      16.61       4.80
