28

O      18.28      28.62      12.08
O      17.41      27.85      10.15
C      17.35      28.08      11.40
C       6.65      24.70      17.56
O       5.72      24.16      16.88
O       6.59      24.93      18.81
C       7.92      25.10      16.83
C       8.06      24.88      15.43
C       9.24      25.26      14.76
C      10.32      25.86      15.45
C      10.18      26.07      16.84
C       9.01      25.71      17.52
C      11.49      26.23      14.77
C      12.51      26.55      14.19
C      13.69      26.92      13.51
C      13.82      26.70      12.12
C      15.00      27.07      11.43
C      16.09      27.68      12.13
C      15.94      27.90      13.53
C      14.76      27.52      14.20
Cl       6.86      24.17      14.43
Cl       9.01      26.04      19.21
Cl      11.50      26.80      17.66
Cl       9.42      25.00      13.07
Cl      12.51      25.98      11.30
Cl      14.58      27.78      15.88
Cl      17.15      28.61      14.52
Cl      15.00      26.74       9.75
