35

C       5.44       9.35      10.39
C       3.93       9.69      10.31
C       3.18       9.07      11.51
C       3.70       9.60      12.86
C       2.62      10.24      13.70
C       3.40       9.02       9.01
C       3.64      11.19      10.26
C       4.60      12.18      10.50
C       4.26      13.54      10.50
C       2.95      13.93      10.25
C       1.97      12.96      10.00
C       2.32      11.61      10.00
H       4.82       7.27      10.12
H       5.77       7.52      11.56
H       5.96       9.74       9.51
H       5.88       9.87      11.26
H       2.11       9.29      11.42
H       3.25       7.98      11.45
H       4.11       8.77      13.46
H       4.50      10.34      12.74
H       3.49       9.22       6.97
H       4.25      10.52       7.85
H       5.64      11.90      10.70
H       5.02      14.29      10.70
H       2.68      14.99      10.26
H       0.94      13.25       9.79
H       1.55      10.86       9.81
N       3.83       9.60       7.85
O       7.72       8.14       9.28
O       6.96       6.03       9.73
O       1.52       9.60      13.80
O       2.90      11.36      14.25
O       2.71       8.00       9.01
C       6.89       7.31       9.78
C       5.67       7.84      10.51
