19

H       9.78      15.65      12.99
C       4.84      18.37      11.09
S       7.06      17.02      14.26
S       7.79      16.85      10.16
H       3.86      17.88      11.20
H       5.19      18.24      10.06
H       4.68      19.44      11.29
O       4.75      18.16      15.55
O       3.66      18.86      13.66
C       4.63      18.30      14.28
C      10.25      15.56      10.16
O      10.15      15.70       8.89
O      11.20      15.00      10.80
C       5.83      17.79      12.06
C       9.02      16.08      12.34
C       5.72      17.77      13.45
C       9.14      16.10      10.96
C       7.82      16.70      12.75
C       7.04      17.17      11.68
