30

C      11.42       5.11       2.17
C      10.68       4.44       1.06
C       9.28       4.41       1.07
C       6.36       4.94       0.55
C       4.96       4.93       0.57
C       4.23       6.04       1.25
C      11.39       3.87      -0.00
C       8.56       3.87      -0.00
C       7.08       3.87      -0.00
C       4.26       3.87       0.00
H       8.76       2.91      -1.94
H       6.88       1.93      -0.95
H       8.76       4.82       1.94
H       6.88       5.81       0.95
O      12.64       2.32      -1.97
O      10.77       2.36      -3.24
O       4.88       0.63      -1.52
O       3.01       1.89      -1.55
H      12.48       3.87       0.00
H       3.17       3.87       0.00
O      12.64       5.41       1.97
O      10.77       5.37       3.24
O       4.88       7.10       1.52
O       3.01       5.84       1.55
C      11.42       2.62      -2.18
C      10.68       3.29      -1.06
C       9.28       3.32      -1.07
C       6.36       2.79      -0.55
C       4.96       2.80      -0.57
C       4.23       1.69      -1.25
