16

C      22.67       8.02       4.26
C      24.87       9.42       5.28
O      24.99       6.41       7.32
H      23.18       6.49       5.70
H      21.81       7.50       3.85
O      26.34       8.25       7.32
H      25.73       9.95       5.70
H      24.35      10.96       3.85
C      25.35       7.56       6.90
O      22.54      11.04       2.23
O      21.19       9.20       2.23
C      22.18       9.89       2.65
C      24.53       8.16       5.80
C      23.00       9.28       3.75
C      23.43       7.46       5.29
C      24.10       9.98       4.26
