16

O      10.30      10.78      14.65
O       9.22       8.77      14.51
S      11.20       7.37      12.93
S      14.80       8.96      11.46
C      10.19       9.57      14.27
C      12.45       9.65      13.03
C      13.55       6.68      11.37
C      11.29       9.02      13.47
C      14.71       7.30      10.93
C      12.72       7.52      12.13
C      13.28       8.80      12.27
C      15.81       6.76      10.12
O      16.77       7.58       9.87
F      12.78      10.93      13.30
F      13.23       5.40      11.11
O      15.71       5.55       9.74
