32

H       2.13      -0.81      17.30
H      -0.24       3.52      18.24
O       2.69       1.83      20.15
O      -2.58      -1.59      16.18
O       0.48      -3.03      20.11
O      -0.38       3.26      16.22
H      -2.03       1.05      19.02
O       0.23      -1.09      12.14
O      -0.12       1.33      24.18
H       2.80       2.15      18.13
H      -2.69      -1.91      18.19
H       0.35      -3.28      18.09
C       0.12       0.05      12.69
C      -0.01       0.18      23.64
C       1.10       0.86      18.63
C      -0.99      -0.62      17.69
C       1.19      -0.40      17.68
C      -1.09       0.63      18.64
C       0.11       0.07      14.13
C      -0.01       0.16      22.19
C      -0.08       1.40      17.70
C       0.19      -1.16      18.62
C       0.03       0.14      16.76
C       0.08       0.10      19.56
C       0.05       0.11      15.34
C       0.05       0.12      20.98
C       2.28       1.67      19.01
C      -2.17      -1.44      17.31
C       0.35      -2.59      18.97
C      -0.24       2.83      17.35
O      -0.00       1.18      12.12
O       0.11      -0.95      24.20
