19

C       4.55      16.89       9.87
H       3.61      14.39       9.36
C       4.55      11.88       9.86
O       5.16      17.94      10.29
H       7.04      16.53      10.85
H       7.04      12.24      10.85
O       5.16      10.83      10.28
O       3.41      16.88       9.29
H       9.09      13.49      11.45
O       3.41      11.90       9.29
H       9.09      15.28      11.45
H       8.34      14.39      12.79
C       4.60      14.39       9.80
C       5.25      15.59      10.09
C       5.25      13.18      10.09
C       6.53      15.59      10.66
C       6.53      13.19      10.66
C       7.18      14.39      10.98
C       8.50      14.39      11.70
