32

H       4.91       7.95      13.18
H       9.07       7.90      22.47
H       4.89       6.91      22.53
H       9.08       6.94      13.08
C       6.97       7.53      24.14
C       6.99       7.60      11.49
C       5.81       7.54      15.10
C       8.18       7.51      20.54
C       5.81       6.95      20.57
C       8.18       6.97      15.04
C       5.82       7.67      13.71
C       8.16       7.63      21.93
C       5.81       7.08      21.96
C       8.17       7.12      13.65
C       7.00       7.47      12.99
C       6.98       7.42      22.64
C       7.00       7.19      15.80
C       7.00       7.17      19.83
C       7.00       7.10      17.20
C       7.00       7.10      18.42
C       4.59       7.78      15.81
C       9.40       7.74      19.84
C       4.60       6.57      19.91
C       9.39       6.57      15.70
N       3.58       7.99      16.35
N      10.42       7.95      19.30
N       3.60       6.23      19.42
N      10.38       6.23      16.20
O       5.83       7.56      24.70
O       8.12       7.64      10.92
O       5.85       7.66      10.93
O       8.10       7.58      24.72
