22

Br       9.63      11.80      10.59
Br       9.62      11.78       7.24
Br       5.37       4.85       7.28
Br       5.40       4.87      10.68
H       6.87       7.20       6.46
C       8.21       9.33       7.52
C       7.55       8.28       8.23
C       8.82      10.36       8.21
C       6.89       7.22       7.55
C       6.26       6.22       8.25
O       9.39       8.98      12.37
O       7.19       9.52      12.45
C       8.24       9.34      10.34
C       8.83      10.37       9.64
C       7.57       8.28       9.66
C       6.92       7.22      10.36
C       6.27       6.22       9.68
H       6.93       7.21      11.45
O       7.12       9.48       5.43
O       9.33       8.96       5.48
C       8.28       9.29      11.85
C       8.23       9.27       6.02
