34

H       3.40      16.34      19.35
H       3.31      18.58      20.50
H       1.27      20.23      17.08
H       1.28      21.43      23.00
H       3.31      23.08      19.59
H       3.40      25.32      20.74
H       2.86      17.82      14.78
H       2.86      23.84      25.31
C       2.33      25.98      23.11
C       2.33      15.68      16.98
C       2.34      17.03      17.61
C       2.92      17.20      18.87
C       2.87      18.43      19.51
C       2.26      19.52      18.86
C       1.72      19.36      17.58
C       1.74      18.12      16.95
C       1.72      22.29      22.51
C       2.26      22.14      21.23
C       2.87      23.23      20.58
C       2.92      24.46      21.22
C       2.34      24.63      22.48
C       1.74      23.54      23.13
C       1.12      18.01      15.59
C       1.12      23.65      24.50
N       2.20      20.81      19.41
N       2.20      20.84      20.68
O       1.32      26.24      23.84
O       3.30      26.77      22.85
O       1.32      15.42      16.24
O       3.30      14.89      17.23
O       1.87      17.74      14.54
O      -0.09      18.24      15.47
O       1.87      23.92      25.55
O      -0.08      23.41      24.62
