28

O       4.90       9.66       9.53
O      12.05       8.69       8.29
O      11.03       6.68       8.32
O       5.17      16.63       7.21
O       3.48      16.42       8.66
C       5.81      10.41       9.13
H      10.50      10.42       9.41
C      11.01       7.96       8.38
H       8.27      11.50       9.74
C       9.67       8.62       8.55
C       9.58       9.91       9.10
H       6.37       8.08       7.93
C       8.34      10.52       9.27
H       8.56       6.98       7.68
C       7.17       9.85       8.88
H       3.16      14.20       9.58
H       3.72      11.80      10.03
C       7.27       8.58       8.30
H       7.25      12.20       7.60
C       8.51       7.97       8.14
C       4.50      15.95       8.06
H       6.69      14.56       7.15
C       4.89      14.53       8.35
C       4.06      13.75       9.17
C       4.37      12.42       9.42
C       5.54      11.85       8.88
C       6.36      12.64       8.06
C       6.04      13.96       7.79
