36

H       5.38       6.06       0.47
H       8.45       6.48       0.41
C       8.09       2.71      -0.57
C       6.69       4.41      -0.04
C       5.86       2.34      -0.51
C       5.66       9.77       1.48
C       7.11       8.11       0.92
C       7.87      10.22       1.33
C       2.23      11.87       1.52
C      11.06      12.73       1.11
C       2.68      -0.16      -0.23
C      11.48       0.51      -0.53
C       4.35      10.30       1.66
C       3.32      10.95       1.69
C       9.83      11.99       1.31
C       8.94      11.17       1.36
C       3.87       0.61      -0.51
C       4.77       1.43      -0.57
C       9.38       2.11      -0.71
C      10.37       1.41      -0.72
C       6.43       5.80       0.34
C       7.39       6.73       0.54
N       7.97       4.00      -0.23
N       5.60       3.62      -0.16
N       7.08       1.83      -0.76
N       5.83       8.48       1.15
N       8.17       8.94       0.99
N       6.65      10.69       1.61
O       1.44      12.11       2.48
O       2.21      12.40       0.35
O      11.23      13.88       1.60
O       2.51      -1.32      -0.71
O      12.28       0.28      -1.48
O      11.53       0.02       0.66
O      11.91      12.05       0.43
O       1.87       0.47       0.55
