26

H       4.60       4.84       3.53
H       3.66       8.78      -0.85
H       4.81       4.91       1.05
C       3.52       6.63       0.82
O       3.71       5.47      -5.56
O       2.67       7.51       5.71
O       3.66       7.74      -5.56
O       3.59       5.43       5.70
H       3.53       4.47      -0.82
H       2.23       8.35       0.95
H       3.60       4.47      -3.31
H       2.07       8.30       3.44
H       3.70       8.75      -3.34
C       3.68       6.61      -4.98
C       3.18       6.49       5.13
C       3.59       5.42      -1.37
C       2.77       7.59       1.51
C       3.63       5.41      -2.76
C       2.67       7.56       2.90
C       3.66       6.61      -3.48
C       3.31       6.55       3.63
C       3.67       7.82      -2.77
C       4.08       5.60       2.95
C       3.63       7.83      -1.38
C       3.59       6.63      -0.66
C       4.19       5.64       1.57
