54

H       6.39      10.66      22.67
H       8.07       3.94      24.55
H       6.07      11.57      24.88
H       6.28      10.56      26.33
H       8.06       4.01      20.89
H       8.30       3.02      22.34
H       9.31       7.73      31.16
H       9.23       7.83      28.65
H       5.31       8.64      16.02
H       5.26       8.53      18.52
H       5.55       5.66      31.20
H       9.40       7.31      16.04
H       5.48       5.73      28.69
H       9.36       7.24      18.55
C       8.50       7.59      16.60
C       6.31       6.18      29.24
C       8.48       7.54      17.99
C       7.35       6.80      28.55
C       7.30       7.85      18.67
C       7.44       6.77      32.82
C       7.36       7.88      14.38
C       8.44       7.35      29.22
C       7.51       6.41      20.62
C       6.16       8.26      17.97
C       6.92       8.19      26.60
C       6.95       8.84      20.88
C       7.59       5.78      26.34
C       6.93       8.63      22.34
C       7.54       5.97      24.87
C       7.23       7.36      22.90
C       7.22       7.24      24.32
C       7.52       6.25      22.07
C       6.91       8.34      25.15
C       6.62       9.71      23.15
C       8.48       7.30      30.61
C       7.83       4.89      24.07
C       6.59       9.60      24.56
C       7.82       4.99      22.65
C       6.19       8.32      16.58
C       7.43       6.72      31.33
C       7.35       7.95      15.88
C       6.35       6.14      30.64
N       7.26       7.71      20.10
N       8.09       3.90      21.90
N       7.28       6.92      27.11
N       6.27      10.68      25.32
O       6.65       9.10      27.39
O       6.73       9.93      20.35
O       7.88       4.72      26.88
O       8.54       7.09      33.37
O       6.26       8.11      13.77
O       8.46       7.57      13.83
O       6.35       6.51      33.44
O       7.70       5.47      19.83
