22

C      11.18       9.35       6.34
H       9.39      10.51       6.08
C      10.47      10.54       6.19
H      10.65      12.69       6.02
C      11.17      11.74       6.15
H      13.14       8.50       6.69
C      12.58      11.71       6.26
C      12.57       9.42       6.52
H      11.88      14.05       4.95
C      13.38      12.95       6.10
N      13.26      10.57       6.48
H      13.31      16.05       4.69
C      12.88      14.05       5.39
H      16.41      14.32       6.83
N      14.92      15.27       5.75
H      15.10      12.22       7.19
C      13.67      15.18       5.23
C      15.40      14.21       6.44
O      11.19       6.96       6.35
C      14.67      13.05       6.63
O       9.26       7.97       5.91
C      10.49       8.03       6.21
