30

C      13.67       2.95       0.07
C      18.76       8.03      -0.02
C      14.13       3.54       1.28
C      15.16       4.49       1.21
C      18.33       7.42      -1.24
C      17.36       6.40      -1.18
C      18.21       7.55       1.18
C      17.26       6.55       1.22
C      14.25       3.38      -1.14
C      15.25       4.33      -1.18
C      15.74       4.91       0.02
C      16.80       5.95       0.02
H      14.10       3.52       3.33
H      19.55       8.50      -2.48
C      12.64       1.89       0.04
C      19.75       9.13       0.03
H      12.95       2.46       2.54
H      18.66       7.19      -3.25
H      15.50       4.92       2.16
H      17.04       5.97      -2.13
H      18.57       8.01       2.10
H      16.87       6.24       2.18
H      13.88       2.94      -2.06
H      15.65       4.63      -2.15
N      13.59       3.24       2.50
N      18.79       7.81      -2.47
O      12.39       1.30      -1.08
O      12.04       1.59       1.13
O      20.06       9.71      -1.09
O      20.25       9.45       1.15
