32

H       0.76      19.90       0.32
H       0.84      20.01      -2.16
H       3.21      23.62      -1.89
H       3.19      23.44       0.58
H       3.21      19.34      -6.37
H       0.84      22.95      -6.10
H       0.76      23.06      -8.58
H       3.19      19.52      -8.85
H       1.79      23.88      -3.50
H       1.79      19.08      -4.77
C       1.97      21.38     -10.35
C       1.97      21.58       2.08
C       1.98      21.66       0.60
C       1.32      20.70      -0.18
C       1.36      20.76      -1.57
C       2.03      21.83      -2.22
C       2.65      22.81      -1.42
C       2.65      22.71      -0.03
C       2.04      21.98      -3.67
C       2.04      20.98      -4.60
C       2.65      20.15      -6.85
C       2.03      21.13      -6.05
C       1.36      22.20      -6.70
C       1.32      22.26      -8.08
C       1.98      21.30      -8.87
C       2.65      20.25      -8.23
O       2.90      20.78     -10.97
O       1.03      22.05     -10.90
O       2.90      22.18       2.70
O       1.03      20.91       2.64
O       2.20      23.28      -4.15
O       2.20      19.68      -4.12
