52

H       3.34       1.13       1.23
H       0.84       2.88       4.26
H       0.84       1.63       0.37
H       3.34       5.12       0.37
H       0.84       5.62       1.23
H       3.34       3.87       4.26
H       0.17      -0.18       5.89
H      -0.00       1.47       5.90
H       4.00      -1.82       3.05
H       4.18      -1.00       1.62
H       0.17       1.74      -3.10
H      -0.00       0.90      -1.68
H       4.00       5.02      -3.10
H       4.18       5.85      -1.68
H       0.17       8.57       3.05
H      -0.00       7.75       1.62
H       4.01       6.93       5.89
H       4.18       5.28       5.90
C       2.09       3.38      -3.77
C       2.09       8.33       4.81
C       2.09      -1.58       4.81
C       2.82      -0.17       2.86
C       2.78       1.04       2.16
C       2.09       2.15       2.66
C       1.39       2.03       3.87
C       1.35       0.81       4.56
C       2.09      -0.29       4.07
C       1.39       2.39      -0.18
C       1.35       2.40      -1.58
C       2.09       3.38      -2.28
C       2.82       4.36      -1.58
C       2.78       4.36      -0.18
C       2.09       3.38       0.53
C       1.39       5.71       2.16
C       1.35       6.92       2.86
C       2.09       7.04       4.07
C       2.82       5.94       4.56
C       2.78       4.72       3.87
C       2.09       4.61       2.66
N       2.09       3.38       1.95
N       0.65       0.71       5.76
N       3.52      -1.26       2.35
N       0.65       1.41      -2.26
N       3.52       5.34      -2.26
N       0.65       8.01       2.35
N       3.52       6.04       5.76
O       1.10      -2.38       4.64
O       1.10       3.93      -4.38
O       1.10       8.58       5.59
O       3.07      -1.83       5.59
O       3.07       9.13       4.64
O       3.07       2.83      -4.38
