22

C       4.41       2.59       4.04
C       4.67       1.42       4.77
H       7.56       4.08       9.08
C       6.78       5.20       7.41
H       4.62       4.72       3.93
C       6.03       5.20       6.24
H       5.59       0.59       6.52
C       5.72       6.55       5.63
H       3.84       2.55       3.10
H       4.30       0.45       4.41
H       7.16       6.15       7.78
O       6.25       1.57       9.68
O       7.53       0.64       8.08
O       6.32       7.57       6.14
O       4.89       6.66       4.69
C       6.81       1.58       8.52
C       6.57       2.81       7.68
C       5.57       3.95       5.71
C       5.85       2.73       6.45
C       7.02       4.03       8.14
C       4.84       3.82       4.50
C       5.38       1.49       5.95
