16

O       8.50      13.45      14.72
O       6.23      13.25      14.47
C       7.35      13.83      14.28
S       8.87      15.83      13.12
S       5.87      18.12      11.32
C       7.41      20.10      10.17
O       6.27      20.55       9.79
O       8.55      20.62       9.92
F       4.99      15.36      13.04
H       9.51      18.55      11.38
C       6.28      15.73      12.92
C       8.48      18.21      11.51
C       7.35      15.05      13.48
C       7.40      18.87      10.97
C       8.07      17.06      12.22
C       6.67      16.88      12.20
