10

C       0.06       5.40       7.98
C      -0.06       7.56      11.10
C       0.02       6.10       8.98
C      -0.02       6.86      10.09
O      -1.20       8.66      12.78
O       1.20       4.29       6.29
O       1.08       8.68      12.75
O      -1.08       4.28       6.32
C      -0.06       8.36      12.29
C       0.06       4.59       6.78
