22

O      22.21      10.84      10.38
H      24.74       4.65      15.10
H      23.05       5.42      13.43
H      22.13       7.24      12.00
H      24.16      11.02      11.77
H      25.89      10.22      13.39
H      26.75       8.44      14.90
C      26.80       6.03      16.13
C      25.83       6.51      15.10
C      24.79       5.65      14.68
C      23.86       6.08      13.76
C      23.93       7.39      13.22
C      22.96       7.88      12.31
C      23.05       9.17      11.80
C      24.12      10.01      12.19
C      25.07       9.57      13.08
C      25.00       8.26      13.63
C      25.94       7.79      14.57
C      22.00       9.69      10.88
O      27.76       6.80      16.46
O      26.59       4.86      16.59
O      20.96       8.97      10.69
