60

C       2.60      20.38      18.10
C       3.79      20.67      18.78
C       3.85      21.73      19.67
C       2.71      22.52      19.87
C       2.17      30.65      26.75
C       2.18      31.69      27.67
C       3.29      31.88      28.50
C       4.39      31.02      28.42
C       4.36      29.95      27.52
C       3.26      29.78      26.67
H       5.43      26.61      20.67
H       0.74      25.59      25.98
H       0.65      22.90      19.33
C       3.31      33.01      29.48
H       4.67      20.04      18.60
H       4.77      21.95      20.22
H       1.32      30.50      26.08
H       1.33      32.37      27.76
H       5.25      31.18      29.07
C      -1.07      23.93      24.49
H       0.55      20.94      17.77
C      -1.87      22.68      24.77
C      -1.79      21.64      23.65
H      -1.37      24.38      23.53
H      -1.20      24.68      25.29
H      -1.53      22.24      25.72
H      -2.92      22.99      24.92
H      -2.15      22.05      22.70
H      -2.41      20.76      23.88
H      -0.76      21.31      23.49
N       3.23      28.71      25.71
N       2.77      23.60      20.82
Cl       6.19      28.77      22.22
Cl       5.68      28.85      27.47
O       1.44      18.97      16.58
O       3.64      18.61      16.94
C       2.55      19.24      17.15
O       1.77      27.55      27.05
O       4.74      29.85      24.44
O       4.49      24.59      19.65
O       1.04      22.63      21.96
O       2.21      33.63      29.65
O       4.41      33.26      30.07
O       0.33      23.57      24.36
C       2.38      27.63      25.99
C       4.07      28.84      24.58
C       4.04      27.72      23.60
C       3.08      26.68      23.75
C       2.25      26.63      24.90
C       4.90      27.66      22.49
C       4.76      26.64      21.53
C       3.80      25.65      21.66
C       2.94      25.64      22.79
C       1.99      24.59      22.95
C       1.18      24.59      24.11
C       1.33      25.62      25.07
C       3.74      24.60      20.62
C       1.86      23.54      21.92
C       1.53      22.26      19.18
C       1.47      21.18      18.30
