14

C       0.55      11.88      15.26
H      -0.38      10.41      13.95
I       3.58      11.30      13.57
I      -0.42      11.13      10.63
H       2.25       8.68      12.43
O      -0.27       8.07       9.73
O       1.98       7.85      10.05
C       0.84       8.39      10.26
C       1.62      10.53      13.40
C       0.58      10.90      14.16
C       1.56       9.53      12.34
O      -0.61      12.24      15.66
C       0.81       9.54      11.22
O       1.65      12.29      15.75
