24

H      17.76      11.45      21.76
H      18.18       9.41      19.82
H      15.24      12.01      20.56
H      14.03      10.16      22.32
H      14.44       8.11      20.36
H      16.95       7.54      21.56
C      17.45       9.05      26.25
O      14.22       9.50      15.32
O      15.33      11.49      15.22
O      18.29       9.85      26.74
O      17.08       7.92      26.77
C      14.98      10.39      15.79
C      17.26       9.58      20.39
C      17.02      10.71      21.44
C      16.90       9.35      24.96
C      15.46      10.18      17.13
C      16.57       8.53      21.32
C      16.34       9.67      22.41
C      15.18       8.85      20.69
C      15.87       9.90      19.72
C      14.94       9.99      21.74
C      15.63      11.02      20.80
C      16.61       9.51      23.79
C      15.65      10.04      18.33
