60

C       7.02       9.94      14.66
C       7.05      10.22       8.03
C       4.02       8.08      -0.39
C       5.72      10.76      -3.97
H       5.51      11.72      -4.44
C       5.12      12.19      12.12
H       5.38      11.63       9.53
C       6.13       8.50      -4.28
H       5.71      11.50      -1.95
C       6.25       8.29      -2.91
C       7.22      10.72      12.25
C       9.30       9.22      12.38
C       6.26       9.26      -0.56
C       6.21      11.35      11.50
S       8.42       9.64       7.08
H       7.91      13.02      13.53
S       5.14      10.20       4.64
H       8.08      13.35      16.02
H       4.47       8.52       2.25
C       6.18      11.17      10.12
C       6.42       9.45       2.24
H       8.90       9.14       9.74
N       5.87       9.71      -4.80
C       6.51       9.63       3.69
H       8.40      10.23       1.92
H       6.90       9.46      16.77
N       5.94      10.46       7.34
N       7.49      11.42      16.47
H       9.46      10.49      -0.14
C       6.15      10.18       6.04
N       7.64       9.45       4.36
H       8.37      11.05      -1.43
C       5.83      10.62      -2.59
H       8.96       9.39      -1.45
H       6.72       8.94      14.32
H       3.24       7.88       0.36
H       4.31       7.12      -0.85
C       7.43       9.73       5.67
H       3.57       8.69      -1.19
C       7.68      12.20      14.22
C       6.11       9.37      -2.03
H       5.22      12.30      13.21
H       4.14      11.73      11.91
C       7.77      12.40      15.59
H       5.09      13.19      11.67
C       7.44       9.76       0.05
C       5.29       8.88       1.63
C       5.21       8.76       0.24
H       6.25       7.68      -4.99
C       8.15       9.77      10.23
H       6.46       7.28      -2.54
C       7.12      10.21      16.01
C       8.20       9.91      11.62
H       9.35       9.54      13.43
C       7.51       9.83       1.44
H      10.27       9.43      11.91
H       9.17       8.13      12.36
C       7.30      10.94      13.72
C       7.14      10.39       9.47
C       8.62      10.20      -0.79
