16

O       2.27      19.05      12.25
C       4.30      20.25      15.00
H       7.00      18.27      13.03
C       6.60      19.50      14.76
O       5.12      21.71      17.29
C       2.52      19.59      13.37
C       6.24      18.83      13.59
H       4.65      18.38      12.19
O       7.24      21.04      17.04
H       7.62      19.48      15.13
C       5.99      21.02      16.67
H       3.55      20.81      15.56
C       4.93      18.88      13.12
O       1.66      20.13      14.14
C       5.63      20.23      15.46
C       3.94      19.58      13.83
