26

O       7.78      13.59       7.66
O       5.60      14.03       7.27
O       5.46       9.85       1.88
O       7.63      10.40       1.56
C       6.32      13.49       4.53
C       6.30      12.65       3.23
C       6.59      11.17       3.56
C       5.54      10.67       4.56
C       5.65      11.49       5.88
C       6.71      12.61       5.73
C       8.07      11.96       5.46
C       7.99      11.07       4.20
H       7.04      14.32       4.44
H       5.34      13.94       4.73
H       5.32      12.73       2.73
H       7.06      13.01       2.51
H       4.54      10.77       4.12
H       5.69       9.60       4.75
H       4.69      11.94       6.15
H       5.94      10.84       6.72
H       8.83      12.76       5.33
H       8.38      11.38       6.34
H       8.19      10.02       4.44
H       8.74      11.37       3.45
C       6.70      13.47       6.99
C       6.55      10.40       2.24
