24

O       3.40       1.53       8.84
O      -0.56      -0.70       5.62
H       5.35       2.04       9.09
H       4.75       2.24       7.41
H       5.11       0.59       8.05
H      -1.06      -1.85       4.01
H       0.55      -2.24       4.69
H       0.32      -0.74       3.72
H       3.07      -1.02       8.43
H      -0.17       1.80       5.98
C       1.59       3.30       7.30
C       1.32      -2.52       7.13
C       2.46       0.99       7.98
C       0.46      -0.21       6.40
C       2.37      -0.39       7.87
C       0.55       1.18       6.52
C       1.38      -1.02       7.10
C       1.54       1.80       7.29
C       4.73       1.60       8.31
C      -0.15      -1.42       4.45
O       0.48       3.91       7.12
O       2.44      -3.12       7.28
O       2.72       3.85       7.46
O       0.18      -3.07       7.04
