53

Si      12.45      12.45      18.29
H      14.61      10.83      17.01
H      14.60       9.11      15.22
H      10.29      14.06      17.01
H      10.30      15.78      15.22
H      14.06      10.29      19.58
H      15.78      10.30      21.36
H      10.83      14.61      19.58
H       9.11      14.60      21.36
H      10.83      10.29      19.58
H       9.11      10.30      21.36
H      14.06      14.61      19.58
H      15.78      14.60      21.36
H      10.29      10.83      17.01
H      10.30       9.11      15.22
H      14.61      14.06      17.01
H      14.60      15.78      15.22
C      13.65      10.46      16.63
C      13.66       9.49      15.63
C      11.24      14.44      16.63
C      11.23      15.40      15.63
C      14.44      11.24      19.95
C      15.40      11.23      20.96
C      10.46      13.65      19.95
C       9.49      13.66      20.96
C      10.46      11.24      19.95
C       9.49      11.23      20.96
C      14.44      13.65      19.95
C      15.40      13.66      20.96
C      11.24      10.46      16.63
C      11.23       9.49      15.63
C      13.65      14.44      16.63
C      13.66      15.40      15.63
C      12.45      10.96      17.15
C      12.45       9.01      15.11
C      12.45       8.00      14.01
C      12.45      13.94      17.15
C      12.45      15.88      15.11
C      12.45      16.90      14.01
C      13.94      12.45      19.43
C      15.88      12.45      21.47
C      16.89      12.45      22.57
C      10.96      12.45      19.43
C       9.01      12.45      21.47
C       8.00      12.45      22.57
O      13.59       7.60      13.59
O      11.31      17.29      13.59
O      17.29      11.31      22.99
O       7.60      13.59      22.99
O       7.60      11.31      22.99
O      17.29      13.59      22.99
O      11.31       7.60      13.59
O      13.59      17.29      13.59
