33

H      20.64      10.64      12.36
C      17.75      12.37      11.75
O      21.90       9.81      10.40
H      18.80      11.82      13.56
C      17.74      12.26      10.35
C      18.78      11.61       9.69
H      16.93      12.71       9.78
C      16.69      13.09      12.48
H      18.78      11.53       8.60
C      17.03      13.92      13.56
H      18.08      14.00      13.86
C      16.06      14.63      14.27
H      16.35      15.24      15.12
H      13.30      13.54      12.59
C      14.71      14.50      13.92
C      14.36      13.65      12.85
H      15.03      12.32      11.30
C      15.33      12.97      12.12
H      14.73      17.11      14.75
C      13.68      15.21      14.69
H      12.94      18.24      16.06
C      13.84      16.56      15.05
H      10.67      14.79      16.26
C      12.85      17.19      15.79
H      12.34      13.51      14.89
C      20.93      10.31       9.72
C      11.58      15.26      15.88
C      19.84      11.04      10.41
C      12.50      14.57      15.12
C      19.83      11.12      11.81
N      11.74      16.56      16.21
O      20.88      10.12       8.46
C      18.81      11.78      12.47
