36

H       5.77       4.90      16.33
H       9.98       4.78      17.17
H       5.81      -4.61      16.87
H      10.02      -4.49      16.04
H      10.05       1.13      17.40
H      10.95       2.56      17.61
H       5.54       1.29      15.82
H       4.71       2.77      15.75
H      10.07      -0.85      15.70
H      10.97      -2.28      15.54
N      10.20       2.10      17.11
H       5.56      -0.99      17.30
N      10.22      -1.80      16.03
N       5.46      -1.94      16.95
H       4.74      -2.47      17.41
N       5.44       2.23      16.20
O       6.77       7.05      16.65
O       9.03       7.03      16.90
O       9.07      -6.75      16.41
O       6.81      -6.75      16.54
C       7.90       6.46      16.78
C       7.94      -6.17      16.46
C       7.87       4.96      16.76
C       6.66       4.30      16.50
C       6.62       2.91      16.43
C       7.82       2.16      16.66
C       9.04       2.84      16.94
C       9.05       4.24      16.98
C       7.80       0.76      16.59
C       7.81      -0.47      16.53
C       7.84      -1.87      16.49
C       6.65      -2.61      16.73
C       6.70      -4.01      16.69
C       7.91      -4.67      16.45
C       9.09      -3.95      16.21
C       9.06      -2.55      16.22
