20

S       8.05       2.94      19.58
S       7.18       6.71      21.15
H       5.38       3.51      21.42
S      10.17       6.72      19.20
H      11.53       6.83      20.82
O      10.18       2.23      17.82
O      11.47       4.09      18.13
C      10.41       3.40      18.28
C       4.80       6.12      22.45
O       4.85       7.36      22.77
O       3.89       5.28      22.76
O      11.57       6.41      19.94
O      10.45       6.80      17.80
C       9.16       5.30      19.55
C       9.33       4.00      19.09
C       5.92       5.61      21.64
C       7.27       4.21      20.43
C       7.98       5.43      20.32
C       6.08       4.31      21.19
O       9.55       7.82      19.91
