43

O       8.18      14.90       4.98
H      10.79      19.77       1.99
O      16.12      18.73       7.19
H      13.51      18.89       1.48
O       6.90      11.57       4.92
C       9.19      15.68       4.54
O      17.40      20.45      10.05
C      15.11      18.73       6.30
O       6.01      13.54       5.64
C      10.16      15.26       3.61
O      18.29      18.84       8.70
C      14.13      19.74       6.20
H      10.18      14.24       3.23
H      14.11      20.58       6.89
C      11.11      16.17       3.16
C      13.19      19.67       5.18
H      11.83      15.84       2.41
H      12.47      20.49       5.10
C      11.13      17.50       3.62
C      13.17      18.61       4.26
H      10.23      18.87       5.04
H      14.07      16.70       3.79
C      10.20      17.87       4.61
C      14.10      17.57       4.44
H       8.52      17.28       5.84
H      15.77      16.80       5.57
C       9.23      16.99       5.07
C      15.06      17.61       5.43
H       8.18      13.43       3.48
H      16.11      20.76       7.72
C       8.17      13.52       4.58
C      16.13      19.77       8.19
H       9.05      13.01       5.00
H      15.25      19.66       8.84
C       6.91      12.84       5.11
C      17.39      19.65       9.04
H      10.88      20.26       3.69
C      12.15      18.53       3.12
H      13.42      17.18       1.90
C      11.47      19.88       2.84
H      12.23      20.63       2.60
C      12.83      18.09       1.81
H      12.07      17.93       1.04
