36

H      14.20       9.51       4.12
H      14.40       7.74       3.99
H      12.49       9.19       5.94
H      12.67       7.42       5.78
H      11.70       5.47       1.02
H      10.27       6.27       0.32
H       8.95       5.72       2.40
H      10.37       4.90       3.07
H       9.75      11.15       3.28
H       8.83      10.34       1.98
H      10.34      11.32       0.27
H      11.37      12.03       1.53
N      12.59       8.49       3.30
N      11.15       7.27       1.91
N      10.69       9.53       2.38
O      12.12      10.69       3.75
O       9.28       8.29       1.05
O      13.00       6.28       2.84
O      15.26       7.52       6.48
O      14.35       9.22       7.64
O      10.01       3.63       0.32
O       8.56       3.14       1.99
O       8.28      12.87       1.71
O      10.00      14.04       0.80
C      11.82       9.65       3.18
C      10.30       8.36       1.73
C      12.30       7.28       2.70
C      13.71       8.54       4.26
C      13.19       8.38       5.69
C      14.33       8.40       6.69
C      10.78       6.01       1.25
C       9.86       5.16       2.13
C       9.43       3.87       1.44
C       9.82      10.71       2.28
C      10.34      11.74       1.29
C       9.45      12.98       1.28
