24

H       8.17       3.60      22.00
H       7.59       1.66      20.00
H       9.09      -0.25      21.48
C       9.75       0.69      26.25
O       8.64       3.64      15.37
O      10.90       0.35      26.62
O       8.65       0.52      26.91
H      12.00       2.43      22.03
H      11.42       0.50      20.03
H      10.50       4.35      20.56
O      10.89       3.55      15.11
C      10.70       1.18      20.48
C      11.02       2.26      21.57
C       9.65       1.28      24.94
C       9.92       2.80      17.08
C       9.40       0.77      21.25
C       9.73       1.85      22.38
C       8.57       1.83      20.47
C       9.86       2.25      19.66
C       8.89       2.91      21.55
C      10.19       3.33      20.78
C       9.66       1.58      23.76
C       9.80       3.35      15.76
C       9.92       2.51      18.27
