14

C       3.13       8.57       8.08
H       0.20       5.81       7.29
H       2.77       9.60       8.05
O      -1.90       8.20       8.18
O       5.10       7.38       8.63
H       0.47       8.75       8.20
H       2.64       6.51       7.97
O      -2.27       6.36       6.88
C       2.26       7.54       8.02
C      -0.08       6.82       7.60
O       5.23       9.30       7.40
C       0.83       7.75       7.96
C      -1.52       7.15       7.55
C       4.59       8.40       8.04
