26

O       2.83      10.70       0.88
H       2.69      13.83       1.71
H       2.35      14.41       0.07
H       3.91      16.10       0.49
H       4.47      15.31       1.97
O       6.22      16.86      -0.50
O       7.60      15.70       0.87
H       3.39      13.26      -1.94
H       4.79      12.21      -1.68
H       4.66      12.23       2.04
H       5.35      11.39       0.67
H       4.69      15.19      -1.74
H       6.10      14.14      -1.85
H       6.95      13.06       0.33
H       6.46      13.71       1.89
C       2.69      11.71       0.11
C       6.53      15.84       0.19
C       3.15      14.07       0.74
C       4.25      15.14       0.91
C       5.54      14.69       0.18
C       5.18      14.33      -1.28
C       4.26      13.09      -1.29
C       3.77      12.78       0.14
C       4.98      12.37       1.00
C       6.09      13.44       0.89
O       1.71      11.93      -0.67
