28

O       2.93      30.69      25.01
O       1.05      42.69      18.08
O       2.94      42.06      16.99
H       2.00      37.20      18.01
H       1.99      39.37      21.78
H       1.99      33.37      20.22
H       2.00      35.55      23.99
C       1.99      30.87      24.18
F       2.02      39.34      16.56
C       1.99      41.87      17.82
F       1.97      41.70      20.66
F       1.97      31.04      21.34
F       2.01      33.41      25.44
C       1.99      40.58      18.57
C       2.02      39.34      17.91
C       2.00      38.13      18.58
C       1.99      38.13      19.99
C       1.98      39.35      20.69
C       1.97      40.53      19.97
C       1.99      36.90      20.69
C       1.99      35.85      21.30
C       1.99      34.62      22.01
C       1.98      33.40      21.31
C       1.97      32.21      22.03
C       1.99      32.17      23.43
C       2.02      33.40      24.09
C       2.00      34.62      23.42
O       1.05      30.06      23.92
