20

H      12.11       7.76       8.67
H      13.84       7.55       9.10
H      12.65       6.28       9.55
H       8.55       6.39      11.91
H       8.81       7.37      14.19
H      10.89       8.65      14.73
C      12.81       7.36       9.42
C      11.64       7.78      11.51
C      10.45       7.10      11.20
C       9.46       6.94      12.18
C       9.60       7.48      13.45
C      10.76       8.19      13.76
C      11.79       8.31      12.82
C      13.04       9.01      13.24
C      10.07       6.59       9.84
O      12.67       8.05      10.67
O      12.87      10.17      13.73
O      14.14       8.37      13.13
O      10.11       5.33       9.67
O       9.67       7.46       8.99
