34

H       2.54      11.18       8.56
H       2.84       7.30      10.39
H      -1.87       7.96       9.39
H      -3.97      12.08       9.80
H       0.06      10.96       8.52
H      -6.45      11.98       9.97
H      -1.82      11.00       9.85
H      -3.85       7.75       9.94
C       4.34       9.40       9.56
C      -8.04       9.82       9.95
C      -6.54       9.84      10.02
C      -5.76       8.67      10.01
C      -4.39       8.70       9.90
C      -3.71       9.93       9.80
C      -4.48      11.11       9.86
C      -5.86      11.07       9.96
C       0.67      10.17       8.96
C       2.05      10.29       8.96
C       2.24       8.11       9.98
C       0.85       8.00       9.97
C       0.02       9.03       9.49
C      -2.26      10.01       9.70
C      -1.44       8.95       9.50
C       2.85       9.27       9.50
N      -6.39       7.35      10.23
N       0.30       6.76      10.54
O       4.86      10.38       8.94
O      -8.53       8.98       9.14
O       4.95       8.51      10.25
O      -8.66      10.68      10.66
O      -5.94       6.40       9.59
O      -7.30       7.29      11.08
O      -0.84       6.80      11.04
O       1.01       5.75      10.51
