38

H       6.81      14.66       9.62
H       3.17      25.64       4.60
H       4.65      14.34       8.43
H       4.75      18.06       5.22
H       3.07      21.92       7.81
H       1.01      25.33       3.41
H       2.97      15.38       7.25
H       4.85      24.61       5.78
H       6.77      18.83       8.54
H       1.05      21.15       4.48
H       7.88      16.91       9.67
H      -0.07      23.08       3.36
C       0.88      23.22       3.87
C       5.09      17.69       7.85
C       2.73      22.30       5.17
C       6.31      17.84       8.52
C       1.51      22.14       4.50
C       6.93      16.77       9.15
C       6.34      15.51       9.12
C       1.48      24.48       3.91
C       4.37      18.90       5.80
C       3.44      21.08       7.23
C       3.87      19.98       9.40
C       3.87      20.02       5.12
C       3.94      19.97       7.91
C       3.95      20.00       3.63
C       3.38      21.13       5.83
C       4.44      18.85       7.19
C       5.12      15.33       8.45
C       2.69      24.66       4.58
C       4.50      16.41       7.82
C       3.31      23.58       5.21
O       3.93      21.13       9.97
O       3.89      18.86       3.06
O       3.72      18.86       9.99
O       4.10      21.12       3.04
O       3.30      16.29       7.17
O       4.52      23.69       5.86
