20

C      -0.58       5.13       8.17
C       0.12       4.03       8.66
H      -3.06       8.44       5.44
H      -1.93       6.40       6.25
H      -3.39       7.32      10.21
H      -4.50       9.32       9.21
H      -1.70       3.12      11.23
H      -3.09       5.03      10.48
H      -0.18       5.69       7.33
H       1.04       3.69       8.18
N      -3.81       8.97       7.30
N      -0.27       3.34       9.74
C      -3.11       8.15       6.48
C      -2.46       7.02       6.95
C      -2.52       6.69       8.31
C      -3.29       7.52       9.14
C      -3.91       8.64       8.60
C      -1.40       3.71      10.36
C      -2.17       4.79       9.94
C      -1.76       5.53       8.82
