48

C      17.91      26.01      15.52
H      15.78      21.24      14.05
H      15.65      20.92      15.78
H      20.82      27.74      16.25
H      20.60      25.99      16.34
H      20.83      26.77      14.77
H      14.21      20.88      14.75
Cl      19.87      24.26      14.65
Cl      17.98      22.03      14.98
H      12.05      26.13      13.85
H      11.89      24.47      13.25
H      11.01      24.95      14.69
H      15.86      29.36      18.09
H      17.60      29.68      18.21
H      16.62      30.63      17.11
H      11.84      27.89      15.13
H      11.63      26.42      16.08
H      12.14      27.91      16.87
H      13.78      29.44      17.41
H      14.88      30.06      16.18
H      13.28      29.50      15.73
O      19.09      30.57      16.60
C      14.65      27.90      16.13
O      11.41      22.49      14.45
O      12.51      21.47      16.14
O      20.03      29.49      14.84
C      13.72      26.95      15.77
C      18.27      24.66      15.17
C      17.34      23.63      15.15
C      14.90      22.88      15.14
C      18.85      27.06      15.69
C      13.56      23.31      15.04
C      18.36      28.34      16.06
C      13.21      24.67      14.90
C      17.04      28.54      16.50
C      14.14      25.63      15.37
C      16.06      27.58      16.11
C      15.53      25.26      15.44
C      16.50      26.28      15.68
C      15.15      21.40      14.93
C      20.35      26.88      15.75
C      11.97      25.09      14.15
C      16.75      29.62      17.52
C      12.26      27.30      15.96
C      14.14      29.30      16.38
C      19.24      29.54      15.86
C      12.43      22.34      15.18
C      15.92      23.88      15.24
