32

O      -1.26      -5.96      11.85
O      -0.57      -4.81      10.02
H       7.82      -3.04      13.40
H       5.67      -3.01      17.17
H       3.82      -3.24      11.38
H       2.33      -5.08      15.01
O      11.29      -1.76      16.55
O      10.19      -1.83      18.54
H      10.84      -2.19      14.95
H       8.53      -2.06      18.95
H       0.87      -4.04       9.65
H      -0.62      -6.09      13.40
C      -0.38      -5.22      11.24
C      10.20      -1.96      17.24
O      10.08      -2.43      14.37
O       7.65      -2.32      18.60
O       1.77      -3.75       9.96
O       0.12      -5.87      14.02
C       8.99      -2.34      16.55
C       8.98      -2.54      15.13
C       7.80      -2.89      14.47
C       6.61      -3.07      15.20
C       6.59      -2.88      16.60
C       7.75      -2.51      17.27
C       5.42      -3.43      14.53
C       4.40      -3.75      13.95
C       3.21      -4.12      13.27
C       3.04      -3.78      11.92
C       1.87      -4.12      11.25
C       0.83      -4.85      11.93
C       1.04      -5.19      13.31
C       2.20      -4.81      13.97
