18

O       4.26      20.24       6.92
C       1.72      19.28       6.56
C       1.95      17.92       8.58
H       0.12      16.90       9.15
H      -0.19      19.23       5.55
C       0.59      17.56       8.42
C       0.41      18.89       6.39
O       4.69      18.77       8.60
C       2.51      18.82       7.63
H       2.17      16.87      10.33
N       2.66      17.39       9.61
O      -2.14      17.07       8.25
H       2.19      19.96       5.85
H       3.61      17.70       9.75
C      -1.62      17.68       7.26
O      -2.23      18.03       6.19
C      -0.17      18.03       7.35
C       3.91      19.31       7.72
