16

C      18.57      -0.50      21.63
O      17.43      -0.00      21.91
O      19.72      -0.03      21.96
S      20.08      -4.89      18.87
S      17.04      -2.46      20.40
C      17.46      -4.89      18.87
H      16.44      -5.20      18.67
C      18.56      -5.60      18.42
C      19.67      -2.46      20.40
C      19.27      -3.60      19.68
C      17.86      -3.74      19.59
C      18.57      -1.74      20.85
H      20.69      -2.14      20.60
O      19.69      -7.31      17.31
O      17.40      -7.33      17.33
C      18.55      -6.84      17.63
