20

C      13.58       2.87       7.21
C      12.87       2.10       6.29
C      12.80       2.50       4.95
C      13.47       3.68       4.59
C      14.14       4.41       5.56
C      11.68       0.94       1.69
C      12.44       1.66       2.61
C      12.04       1.72       3.95
C      10.87       1.03       4.31
C      10.15       0.34       3.34
N      14.19       4.01       6.85
H      13.66       2.61       8.26
H      12.39       1.18       6.63
H      13.41       4.08       3.58
H      14.63       5.35       5.33
N      10.55       0.30       2.06
H      11.95       0.86       0.64
H      13.35       2.16       2.27
H      10.47       1.07       5.32
H       9.22      -0.17       3.57
