30

H       1.78       8.17       7.20
S      -0.23       8.32       4.31
H       1.86       7.09       8.60
O      -1.27       8.07       3.34
H      -0.41       6.51       8.47
H      -0.53       8.05       7.62
H       2.26       7.39       4.93
H       1.94       3.94       6.49
H      -0.26       4.19       5.69
H       1.51       4.56       8.08
H      -0.72       4.36       7.38
O      -0.84       9.15       5.52
O       4.17       7.21       6.76
O       4.18       4.95       6.80
O      -2.60       7.49       6.26
O      -2.69       5.24       6.07
O       0.97       9.02       3.91
H       2.08       5.68       4.53
H      -1.63       8.56       5.89
H      -0.17       6.02       4.23
C       3.59       6.07       6.77
C      -0.53       6.25       6.35
C      -2.06       6.32       6.20
C       1.47       7.19       7.58
C      -0.07       7.06       7.58
C       1.73       6.47       5.21
C       1.41       4.75       7.00
C       0.20       6.66       5.03
C       2.07       6.10       6.67
C      -0.08       4.79       6.59
