22

H       7.80       2.75       9.28
H       7.69       1.35      10.37
H       6.88       2.88      10.79
H       3.01      -2.32       6.64
H       2.20      -0.78       7.06
H       2.09      -2.19       8.15
C       5.05      -3.46       8.71
C       4.84       4.02       8.71
C       5.90       1.74       9.25
C       3.99      -1.18       8.18
C       4.90       2.56       8.71
C       4.99      -1.99       8.72
C       4.33       0.18       8.38
C       5.55       0.38       9.05
C       7.13       2.20       9.96
C       2.76      -1.64       7.47
S       3.58       1.68       7.99
S       6.31      -1.11       9.44
O       3.97      -4.08       8.44
O       3.71       4.57       8.46
O       5.92       4.64       8.98
O       6.18      -4.00       8.96
