23

C       0.28       8.84      17.53
H      -1.34      10.56      18.86
C       0.98       7.66      17.42
C       0.23      11.34      17.60
C       0.70      12.48      16.92
C      -0.04      13.66      16.91
C      -1.27      13.72      17.58
C      -1.72      12.60      18.30
C      -0.98      11.43      18.30
C      -2.13      14.93      17.51
H       4.09       8.72      17.21
N       2.33       7.62      17.29
H       2.97      10.93      17.45
H      -0.81       8.80      17.55
H       0.47       6.70      17.42
H      -2.67      12.66      18.83
C       3.00       8.79      17.30
O      -3.33      14.91      17.90
H       1.64      12.43      16.36
C       2.37      10.02      17.42
H       0.32      14.54      16.38
O      -1.62      16.01      17.01
C       0.97      10.07      17.53
