16

O       4.35       5.80       1.24
O       4.36       8.08       1.24
C      -3.73       6.93       1.25
O      -4.31       8.07       1.25
O      -4.31       5.79       1.25
C       0.11       7.64       1.25
S       1.46       5.42       1.23
S      -1.41       8.45       1.26
H       1.85       9.05       1.26
H      -1.80       4.82       1.23
C       1.47       8.04       1.25
C      -1.42       5.84       1.24
C       2.31       6.94       1.24
C      -2.26       6.93       1.25
C      -0.06       6.24       1.24
C       3.78       6.94       1.24
