16

O      17.44      18.48      26.28
Cl      18.01      20.89      27.64
H      20.15      21.36      29.29
C      20.25      20.34      28.93
H      20.62      16.71      27.65
O      22.13      21.38      30.64
O      23.33      19.44      30.64
C      20.53      17.73      28.02
O      18.74      16.62      26.29
C      18.46      17.82      26.64
C      19.42      18.49      27.58
C      21.34      19.57      29.35
C      19.30      19.81      28.06
C      21.48      18.25      28.89
H      22.33      17.66      29.21
C      22.35      20.18      30.28
