30

C       6.78      10.18      14.10
C       6.86      20.20      13.91
H       5.01      18.58      12.81
H       8.66      11.81      15.11
H       8.77      18.59      14.87
H       4.94      11.79      12.99
H       9.83      16.44      15.58
H       3.93      13.94      12.18
H       9.78      13.96      15.68
H       3.98      16.41      12.08
O       7.88       9.60      14.38
O       5.72      20.75      14.09
O       7.97      20.80      13.78
O       5.68       9.60      13.83
C       5.82      18.01      13.26
C       7.86      12.37      14.64
C       6.88      18.71      13.86
C       6.79      11.68      14.06
C       7.95      18.02      14.43
C       5.75      12.36      13.43
C       7.95      16.62      14.49
C       5.76      13.76      13.34
C       6.87      15.90      13.89
C       6.84      14.48      13.94
C       5.81      16.61      13.24
C       7.90      13.77      14.60
C       9.00      15.88      15.13
C       4.74      14.50      12.66
C       8.98      14.52      15.19
C       4.76      15.86      12.61
