38

C      11.25       5.37       4.32
C      12.51       3.64       5.92
C      13.52       4.61       5.25
C       9.02       6.28       3.52
H      11.20       2.07       5.15
H      12.53       2.51       4.06
C      11.49       4.51       6.68
H      13.04       5.03       3.14
H      14.35       4.05       4.81
H      11.75       6.56       6.03
C      10.70       7.17       2.40
H      10.56       3.95       6.85
H      11.91       4.86       7.64
H      13.12       6.47       4.15
C      10.43       6.28       3.46
H       8.38       5.70       4.17
H      13.95       5.27       6.01
C      14.19       1.73       6.48
C      12.49       1.88       7.86
N       8.51       7.08       2.59
H      11.66       7.49       1.99
N       9.54       7.65       1.88
H      14.94       1.87       5.71
N      14.23       0.63       7.27
H       9.27       2.77       4.21
N      13.15       0.72       8.16
H       9.51       6.90       5.83
O       9.49       3.69       4.45
H      11.08       3.08       8.27
H      10.32       4.13       2.16
O       9.76       6.07       6.28
O      11.39       2.20       8.57
O      10.96       3.57       2.64
C      13.11       2.55       6.78
C      10.85       3.88       4.02
C      11.78       2.92       4.76
C      12.79       5.42       4.13
C      11.07       5.71       5.84
