20

H      -6.91       9.86      10.02
H      -2.34       6.16      12.64
H      -6.91       6.16      12.64
H      -2.34       9.86      10.02
C      -4.62      10.36       9.67
C      -4.62       5.66      12.99
C      -4.62       9.17      10.51
C      -4.62       6.85      12.15
C      -5.86       8.58      10.92
C      -3.39       7.44      11.73
C      -5.86       7.44      11.73
C      -3.39       8.58      10.92
O      -3.49      10.87       9.30
O      -5.76      10.87       9.30
O      -3.49       5.15      13.35
O      -5.76       5.15      13.35
O      -7.08       9.07      10.58
O      -2.17       6.95      12.07
O      -7.08       6.95      12.07
O      -2.17       9.07      10.58
