24

H       5.36      -1.17      10.58
H       5.22      -1.02       7.51
C       4.49      -5.05       8.37
C       4.40      -3.65       8.49
C       5.26      -2.97       9.37
C       6.16      -3.76      10.12
C       6.19      -5.15       9.94
C       5.29      -1.51       9.55
C       5.30      -0.64       8.53
C       4.63       1.57       7.65
C       5.35       0.82       8.61
C       6.12       1.56       9.53
C       6.14       2.97       9.46
C       4.70       2.97       7.64
N       5.37      -5.78       9.08
N       5.43       3.65       8.54
Cl       7.32      -6.08      10.81
Cl       7.24      -3.01      11.22
Cl       3.45      -5.87       7.31
Cl       3.19      -2.81       7.60
Cl       7.10       0.78      10.70
Cl       7.11       3.85      10.54
Cl       3.66       0.76       6.49
Cl       3.87       3.86       6.45
