32

H       8.85      -2.51      11.15
H      10.43      -3.81      12.38
H       9.05      -3.54      13.48
H      10.52      -2.53      13.60
H       7.23       2.83      14.68
H       5.65       4.13      13.45
H       5.56       2.85      12.23
H       7.03       3.87      12.35
H       9.24       2.08      11.98
H       6.84      -1.76      13.85
C       8.09       0.22      15.76
C       7.99       0.10      10.07
C       9.36       0.16      13.34
C       6.73       0.17      12.49
C       8.70       1.24      12.40
C       7.38      -0.91      13.42
C       7.99       0.13      11.55
C       8.10       0.19      14.28
C       8.65      -0.98      12.46
C       7.43       1.30      13.37
C      10.72       0.15      13.74
C       5.36       0.17      12.09
C       9.85      -3.04      12.90
C       6.24       3.36      12.93
N       9.34      -2.07      11.93
N       6.74       2.40      13.90
N      11.86       0.12      14.03
N       4.23       0.20      11.80
O       6.86       0.01       9.48
O       6.94       0.17      16.31
O       9.14       0.15       9.52
O       9.22       0.31      16.34
