42

H       0.52      15.71       7.82
H       4.82      15.91       7.81
H       4.82      15.97      10.32
H       0.52      15.77      10.32
C       7.24      16.00      16.04
C       7.24      15.84       2.10
C      -2.12      15.91      15.82
C      -2.13      15.67       2.31
C       1.48      15.91      13.89
C       3.73      15.99      13.94
C       2.65      15.91      11.94
C       1.47      15.67       4.25
C       3.72      15.79       4.19
C       2.65      15.77       6.19
C       1.46      15.77       8.38
C       2.67      15.81       7.66
C       3.88      15.88       8.37
C       3.88      15.92       9.76
C       2.67      15.88      10.47
C       1.46      15.80       9.76
C      -0.87      15.61       3.03
C       0.21      15.61       3.58
C       4.93      15.82       3.44
C       5.97      15.84       2.80
C      -0.85      15.89      15.13
C       0.23      15.89      14.57
C       4.95      16.02      14.68
C       5.98      16.03      15.32
N       2.59      15.96      14.65
N       3.83      15.96      12.60
N       1.45      15.88      12.55
N       2.57      15.71       3.48
N       3.82      15.83       5.53
N       1.44      15.69       5.59
O       8.02      15.04      15.76
O       7.44      16.94      16.88
O       7.98      14.82       2.27
O       7.50      16.88       1.41
O      -2.92      16.84      15.49
O      -2.30      15.01      16.70
O      -2.99      16.50       2.73
O      -2.24      14.91       1.30
