20

O       3.30       6.13       8.08
O      -5.40       6.14       8.82
O      -5.38       8.37       8.32
O       0.84       3.84       7.41
O       1.98       4.09       9.55
O      -0.50       3.74       9.48
H      -2.84       9.33       8.34
H      -0.06       3.67       7.08
C       2.71       7.17       8.49
C      -4.82       7.26       8.58
C       0.35       6.06       8.77
C      -2.48       8.31       8.49
C       1.23       7.13       8.61
C      -3.34       7.24       8.62
C      -1.14       7.88       8.57
C      -1.01       6.49       8.75
S       0.40       8.64       8.48
S      -2.54       5.72       8.86
S       0.71       4.34       8.95
O       3.25       8.29       8.80
