111

O      19.32      15.37      14.21
O      27.74      26.95      22.55
O      18.78      14.75      16.34
O      28.28      25.13      23.81
H      25.11      21.49      18.11
H      21.95      21.31      17.98
O      31.88      17.08      13.37
O      15.18      27.20      20.66
H      24.09      20.36      17.15
H      22.97      22.58      18.75
O      32.74      16.00      15.12
O      14.32      25.88      22.24
H      25.26      17.22      18.86
H      21.80      21.95      22.27
O      30.75      23.07      24.33
O      16.31      14.91      18.45
H      23.75      18.18      19.07
H      23.31      21.45      21.43
O      29.82      21.44      25.54
O      17.24      14.28      20.38
H      26.19      19.19      16.48
H      20.87      23.59      19.65
H      27.17      20.28      17.52
H      19.89      22.25      18.94
H      25.18      19.61      20.65
H      21.88      19.50      20.57
H      26.66      18.69      20.19
H      20.40      20.23      21.30
H      22.66      16.40      18.77
H      24.40      22.30      23.02
H      20.55      15.35      17.99
H      26.51      23.37      23.77
H      21.40      16.53      13.96
H      25.66      26.82      21.37
H      23.48      17.68      14.72
H      23.58      25.74      20.52
H      28.06      19.36      15.41
H      19.00      24.54      19.15
H      29.97      18.63      14.02
H      17.09      26.10      19.41
H      31.14      15.83      17.08
H      15.92      24.08      23.03
H      29.19      16.49      18.44
H      17.87      22.58      22.83
H      28.49      22.62      20.04
H      18.57      19.12      17.52
H      29.92      23.24      22.00
H      17.14      17.07      17.55
H      28.09      20.12      24.31
H      18.97      15.86      21.24
H      26.67      19.48      22.37
H      20.38      17.90      21.24
C      25.46      19.37      18.51
C      21.60      21.61      20.12
C      24.54      20.54      18.14
C      22.52      21.58      18.89
C      24.66      18.06      18.47
C      22.40      22.06      21.35
C      26.60      19.34      17.49
C      20.46      22.58      19.83
C      26.01      19.54      19.93
C      21.05      20.21      20.40
C      23.19      17.12      16.79
C      23.87      23.95      21.71
C      22.39      16.45      17.71
C      24.67      23.28      22.64
C      21.21      15.83      17.28
C      25.85      23.89      23.08
C      20.84      15.86      15.93
C      26.21      25.16      22.63
C      21.68      16.51      15.01
C      25.37      25.83      21.72
C      22.84      17.14      15.43
C      24.21      25.23      21.26
C      19.55      15.27      15.46
C      27.51      25.79      23.04
C      28.50      17.95      17.01
C      18.56      23.47      20.99
C      28.72      18.58      15.78
C      18.34      24.45      20.01
C      29.80      18.17      14.99
C      17.26      25.32      20.15
C      30.68      17.17      15.44
C      16.38      25.21      21.23
C      30.46      16.58      16.70
C      16.60      24.21      22.19
C      29.37      16.95      17.47
C      17.69      23.36      22.08
C      31.82      16.74      14.58
C      15.24      26.16      21.37
C      27.51      21.02      21.08
C      19.55      18.64      19.37
C      28.42      22.08      20.98
C      18.64      18.40      18.33
C      29.21      22.42      22.07
C      17.85      17.26      18.35
C      29.09      21.71      23.28
C      17.96      16.34      19.41
C      28.17      20.66      23.37
C      18.89      16.59      20.44
C      27.38      20.30      22.28
C      19.68      17.73      20.43
C      29.92      22.08      24.44
C      17.13      15.12      19.42
O      23.53      20.61      19.14
O      24.33      17.81      17.10
O      22.73      23.44      21.15
O      27.46      18.25      17.84
O      19.60      22.59      20.97
O      26.78      20.75      19.95
O      20.28      19.80      19.27
