26

H      15.71       1.54      11.63
H      11.53       0.60      15.67
H      13.23       1.36      11.67
H      11.50      -0.24      11.44
H       9.01      -0.21      11.46
O       6.80       0.64      14.64
O      18.06       0.44      14.61
O      18.04       0.98      12.41
O       6.80       0.15      12.42
C      15.33      -0.14      14.56
C      17.47       0.66      13.50
C      15.98       0.52      13.51
C       7.38       0.34      13.54
C       8.87       0.23      13.56
C      13.94      -0.27      14.57
C       9.59       0.43      14.75
C      13.16       0.27      13.53
C      11.69       0.19      13.55
C      15.21       1.05      12.46
C      10.98       0.40      14.74
C      13.82       0.93      12.47
C      10.96      -0.04      12.37
C       9.57      -0.03      12.37
H      15.94      -0.57      15.35
H      13.45      -0.82      15.37
H       9.04       0.63      15.66
