30

N       5.95       9.51      16.76
N       6.07      10.66      17.28
O       5.83       7.94      10.58
O       5.85      10.19      10.40
H       6.22      11.36      12.51
H       6.27      11.62      15.00
H       5.60       7.38      15.43
H       6.12      12.81      18.66
H       6.16       8.51      18.99
H       6.24       8.72      21.49
O       6.31      12.13      23.48
O       6.16       9.88      23.64
O       5.55       6.85      12.89
O       6.21      13.29      21.21
H       5.62       6.95      11.90
H       6.25      13.16      22.20
C       5.85       9.12      11.09
C       6.23      10.95      22.95
C       5.87       9.23      12.56
C       6.07      10.50      13.17
C       6.10      10.65      14.54
C       5.92       9.51      15.35
C       5.73       8.25      14.78
C       5.71       8.09      13.39
C       6.14      11.92      19.29
C       6.12      10.66      18.69
C       6.16       9.48      19.48
C       6.21       9.60      20.85
C       6.22      10.87      21.48
C       6.19      12.04      20.68
