37

C      -2.28      16.76      12.15
C      -5.64       8.74      11.97
C      -5.71       9.99      12.62
C      -7.01      10.45      12.35
Si      -2.51      12.08      14.90
H       2.61      11.42      12.94
H       1.28       8.13      15.43
C       0.15      10.69      14.45
C      -0.93      11.25      14.62
C      -3.13      12.03      17.88
C      -2.89      12.06      16.68
H      -5.52      11.25      19.46
H      -1.50      12.64      20.28
C      -2.36      14.96      13.94
C      -2.41      13.80      14.32
C      -4.70      10.64      13.36
C      -3.82      11.22      13.99
H      -2.29      17.59      15.33
H      -2.28      16.19      11.23
H      -4.81       8.04      11.92
H      -7.49      11.37      12.66
N       3.08       8.57      14.39
N       3.50       9.62      13.60
C       2.50      10.51      13.52
C       1.39      10.06      14.26
C       1.82       8.82      14.79
N      -4.43      11.65      21.24
N      -3.15      12.10      21.50
C      -4.58      11.58      19.90
C      -3.39      11.98      19.26
C      -2.52      12.29      20.32
N      -2.24      18.10      12.14
N      -2.25      18.55      13.44
N      -7.66       9.54      11.60
N      -6.82       8.48      11.36
C      -2.28      17.48      14.25
C      -2.30      16.30      13.48
