18

C       0.73      14.67       1.64
O       0.09      15.23       6.59
H       0.73      15.00       4.29
H      -4.94      14.67       2.86
N      -4.14      14.37       2.32
C      -1.38      14.90       4.76
H      -3.54      14.77       4.92
H      -4.24      14.62       1.33
C      -1.13      15.07       6.22
C      -1.75      14.53       2.01
O      -2.08      15.06       7.07
C      -0.47      14.69       2.53
O       1.89      14.71       2.19
C      -2.88      14.56       2.86
O       0.59      14.62       0.37
C      -0.28      14.87       3.90
C      -2.68      14.74       4.25
H      -1.89      14.38       0.94
