13

O       8.82       6.07       5.60
H       8.92       2.99       5.25
N      10.49       4.02       6.25
C       9.60       3.84       5.09
H      11.28       3.02       7.92
O       8.44       4.08       8.02
C       9.16       3.02       8.12
O       7.95       5.04       3.83
C       8.74       5.06       4.82
O       8.91       2.08       8.92
H      10.16       3.60       4.18
C      10.41       2.94       7.24
H      10.44       1.95       6.76
