22

O       4.00       8.51       8.60
O       4.04       6.27       9.04
O      -4.61       6.38       8.55
O      -4.67       8.57       9.19
O       0.81       4.02       9.39
O       2.16       4.35       7.62
O      -1.35      10.77       9.76
O      -2.85      10.64       8.10
H       0.32       4.57      10.03
H      -0.78      10.16      10.28
C       3.46       7.36       8.77
C      -4.08       7.51       8.83
C       1.09       6.28       8.61
C      -1.71       8.61       8.76
C       1.98       7.34       8.68
C      -2.60       7.55       8.72
C      -0.36       8.14       8.73
C      -0.25       6.74       8.65
C       1.44       4.83       8.48
C      -2.06      10.07       8.82
S       1.20       8.89       8.74
S      -1.81       6.00       8.60
