16

O      10.79       1.80      26.15
O      10.71       1.80      28.42
O       7.49       7.91      26.00
O       7.43       7.92      28.27
C      10.49       2.31      27.27
C       9.80       3.64      27.24
C       9.40       4.26      28.44
C       8.75       5.49      28.40
C       8.50       6.12      27.18
C       8.92       5.51      25.98
C       9.56       4.28      26.02
C       7.75       7.41      27.15
H       9.60       3.76      29.38
H       8.42       5.98      29.32
H       8.71       6.01      25.04
H       9.89       3.79      25.10
