22

H       3.99       1.77       6.16
H       5.00       2.65       3.64
H       3.56       5.10       3.97
H       1.33       3.89       2.64
H       0.34       3.03       5.18
C       2.60       4.41       6.78
C       3.42       2.27       5.37
C       2.17       1.65       4.64
C       2.75       2.11       3.26
C       3.97       2.76       3.98
C       3.17       4.10       4.14
C       1.93       3.45       3.44
C       1.37       2.97       4.82
C       2.60       3.60       5.54
C       2.75       1.30       2.02
N       1.69       0.29       4.96
O       1.47       4.68       7.29
O       3.74       4.75       7.23
O       1.60       0.99       1.56
O       3.89       1.02       1.52
O       0.80       0.19       5.82
O       2.25      -0.65       4.37
