20

H      11.04       6.70      13.54
H      11.93       5.16      13.46
H      13.71       6.11      14.97
H      12.82       7.65      15.05
O      16.99       9.14      13.02
O      15.82       8.32      14.79
C      16.01       8.52      13.54
C      11.83       6.31      10.02
O      10.87       5.72      10.63
O      11.95       6.46       8.77
C      12.90       6.88      10.88
C      14.97       7.98      12.63
C      12.85       6.78      12.28
C      15.03       8.08      11.22
C      13.84       7.31      13.11
C      14.03       7.55      10.38
C      12.03       6.25      13.43
C      13.15       6.84      14.38
F      14.23       7.73       9.06
F      16.05       8.70      10.60
