60

H       6.17      10.35       9.27
H       6.13      17.27       9.24
H       2.72      15.01       5.06
H       2.50      12.59       5.25
H       2.79       8.54       3.63
H       1.86      10.03       3.34
H       3.28       9.65       2.33
H       3.85      11.41       4.05
H       4.79       9.93       4.29
H       3.22       9.15       6.05
H       2.22      10.58       5.83
H       4.51      17.26       2.31
H       5.84      18.27       2.93
H       6.19      16.69       2.19
H       6.34      16.64       4.72
H       5.16      15.49       4.08
H       3.28      16.99       4.72
H       4.42      18.26       5.18
H       7.78      10.22      12.38
H       8.12      11.72      13.27
H       6.74      10.70      13.74
H       5.97      12.72      12.41
H       5.58      11.22      11.58
H       7.64      11.46      10.18
H       8.06      12.94      11.01
H       8.57      17.67      11.29
H       9.39      16.30      12.07
H      10.15      17.14      10.70
H       9.15      14.96       9.92
H       8.34      16.33       9.17
H       6.55      16.19      10.99
H       7.32      14.75      11.60
C       4.06      10.96       6.80
C       4.47      16.56       6.48
C       5.58      10.98       8.60
C       5.64      16.62       8.52
C       5.59      12.38       8.71
C       5.62      15.22       8.67
C       4.79      13.09       7.76
C       4.84      14.50       7.72
C       4.00      12.37       6.83
C       4.18      15.19       6.67
C       6.38      13.12       9.68
C       6.37      14.50       9.69
C       3.31      14.47       5.80
C       3.19      13.11       5.91
C       3.26      10.21       5.78
C       3.77      10.35       4.34
C       2.87       9.61       3.35
C       4.29      17.18       5.13
C       5.37      16.57       4.20
C       5.48      17.23       2.83
C       7.20      12.34      10.68
C       6.42      11.85      11.91
C       7.31      11.08      12.88
C       7.15      15.32      10.68
C       8.50      15.83      10.13
C       9.19      16.79      11.10
N       4.87      10.31       7.67
N       5.13      17.25       7.44
