32

N      11.80      10.39       6.35
N       2.10       7.45       9.90
N      10.64       9.50       8.01
N       3.26       8.34       8.24
H      11.11       8.36       6.24
H       2.79       9.48      10.02
H      12.10      12.32       7.26
H       1.80       5.52       9.00
H      10.66      11.17       9.37
H       3.24       6.67       6.88
H       9.97       8.70       9.81
H       3.93       9.14       6.45
H      10.10       7.56       8.47
H       3.80      10.28       7.78
H       7.70       7.28       9.84
H       6.20      10.56       6.41
H       8.61      10.30       6.90
H       5.29       7.53       9.35
C      11.16       9.30       6.78
C       2.74       8.54       9.48
C      11.67      11.33       7.35
C       2.23       6.51       8.90
C      10.94      10.80       8.39
C       2.96       7.04       7.86
C       9.78       8.58       8.73
C       4.12       9.26       7.53
C       8.32       8.77       8.41
C       5.58       9.07       7.85
C       7.37       8.00       9.08
C       6.53       9.84       7.17
C       7.89       9.70       7.45
C       6.01       8.14       8.81
