40

C       3.70      -0.08      16.24
C       0.23       4.54      17.04
H      -0.57       5.16      17.44
C       1.31       2.36      16.83
H       1.30       1.30      17.06
C      -0.77       2.57      18.19
H       3.04       4.73      15.10
O      -0.62       1.35      18.58
C       1.25       5.10      16.27
H       2.33      -2.94      14.96
O      -1.79       3.26      18.52
C       0.28       3.18      17.32
H       1.86       1.14      13.65
O       3.34       2.20      15.49
C       3.12       0.83      15.35
H       3.80      -2.15      16.80
O       1.19       6.45      16.02
C       2.28       4.30      15.75
H       1.36      -1.29      13.36
O       4.46      -0.26      18.50
C       2.30       2.93      16.03
O       2.09       7.52      11.99
C       2.55      -1.88      15.07
C       2.37       7.08      15.66
H       4.04       8.44      13.04
O       0.67       6.48      13.34
C       2.29       0.40      14.32
H       3.03       7.05      17.69
O       5.55       1.15      17.16
C       3.38      -1.44      16.09
H       5.68       8.95      14.85
C       2.00      -0.96      14.17
H       5.17       8.25      17.20
C       1.74       7.13      13.16
C       4.62       0.31      17.35
C       2.64       7.45      14.32
C       3.84       8.14      14.07
C       3.28       7.37      16.68
C       4.75       8.42      15.08
C       4.47       8.03      16.40
