35

O       1.96       5.56       8.31
O       3.22       4.69       9.99
H       0.69       4.04      13.31
H       2.49       6.30      14.40
H       3.12       7.60      13.35
H       5.24       6.29      13.01
H       4.96       6.60      14.74
H       4.61       4.99      14.06
O      -0.44       9.94      14.02
O      -1.77       8.09      13.94
O       0.09       5.98      13.79
O       1.00       8.87      11.87
O       2.72       5.80      12.38
H      -0.80       4.60      12.51
H      -2.00       4.63      14.71
H      -1.32       3.00      14.39
H      -0.52       4.10      15.54
H       0.08      10.73      11.67
H      -0.72       9.38      10.81
H       1.19       9.21       9.22
H       0.55      10.87       9.21
H       2.06      10.51      10.09
C       2.21       5.35       9.54
C       3.17       6.53      13.57
C       4.58       6.07      13.86
C       0.54       6.76      12.76
C       0.26       8.09      12.71
C       1.53       6.15      11.85
C       1.26       5.88      10.54
C      -0.72       8.74      13.63
C      -0.24       4.61      13.45
C      -1.07       4.05      14.59
C       0.25       9.83      11.07
C       1.06      10.12       9.82
Br      -0.48       6.27       9.86
