16

Br       4.31       2.50       7.56
C       3.79       2.88       5.79
C       4.85       2.48       2.36
S       2.54       3.68       3.64
C       6.00       1.85       2.80
C       4.04       2.86       3.45
S       6.10       1.69       4.53
C       4.59       2.49       4.70
O       8.07       0.78       2.62
C       2.64       3.54       5.38
C       1.54       4.12       6.16
O       1.59       4.00       7.43
O       6.99       1.46       0.72
O       0.62       4.70       5.48
H       4.65       2.65       1.31
C       7.10       1.32       1.98
