26

C       1.35       6.98       8.48
H      -0.62      10.23       7.40
H      -0.75       8.79       6.39
H       1.73       6.51       9.40
H       1.58       8.56       6.29
H       1.71      10.13       7.09
O      -2.85       9.55       8.50
O      -2.89       7.29       8.66
H       1.66      10.24       9.61
O       3.93       9.62       8.55
O       4.00       7.41       8.11
H       1.78       6.42       7.64
H      -0.61       6.36       9.26
H      -0.56       6.50       7.51
H      -0.65      10.04       9.94
H      -0.46       8.45      10.68
H       1.86       8.79      10.58
C      -2.28       8.41       8.57
C       1.86       8.43       8.43
C       3.38       8.49       8.36
C       1.36       9.19       9.68
C      -0.27       9.19       7.30
C       1.27       9.12       7.18
C      -0.18       9.06       9.80
C      -0.20       6.96       8.44
C      -0.75       8.39       8.53
