32

C       9.75      10.47       3.72
C       9.93       9.13       2.98
H       7.45      13.03       4.12
C       8.80       7.03       2.43
H       9.22      13.18       4.06
C       8.43       7.41       1.02
H       8.45      12.23       5.35
C       9.24       7.08      -0.07
H       7.58      10.61       3.65
C       8.85       7.46      -1.35
H       7.43      12.18       1.73
C       6.93       8.46      -0.53
H       8.32      10.72       1.27
C       7.25       8.12       0.77
H       9.21      12.23       1.60
C      11.29       8.53       3.36
H       9.79      10.28       4.81
N       8.87       8.18       3.35
H      10.61      11.11       3.47
N       7.71       8.13      -1.58
H       9.95       9.31       1.89
H       8.06       6.32       2.84
O      12.29       8.83       2.64
H       9.77       6.52       2.45
O      11.37       7.79       4.40
H      10.18       6.54       0.06
H       9.47       7.22      -2.22
H       6.01       9.00      -0.76
H       6.58       8.44       1.57
C       8.39      12.49       4.28
C       8.46      11.24       3.40
C       8.35      11.61       1.92
