30

C      -3.11      10.51      23.16
C      -4.03       9.65      23.77
C      -3.45       8.02      17.53
C      -3.77       8.16      18.89
C      -3.14       9.19      19.65
C      -4.70       7.29      19.55
H      -2.65      11.30      23.74
C      -4.98       7.43      20.88
C      -4.35       8.45      21.67
H      -1.21      10.56      17.16
H      -1.34      11.99      21.74
C      -3.42       9.33      21.04
H      -0.86      11.75      19.32
H      -5.36       7.97      23.53
C      -4.64       8.62      23.03
H      -5.70       6.77      21.37
C      -2.53       8.88      16.92
H      -5.19       6.51      18.96
H      -3.90       7.22      16.94
O      -2.47       7.56      14.95
O      -1.26       9.46      15.00
O      -5.28       9.08      25.71
O      -4.10      11.01      25.71
C      -4.48       9.92      25.16
C      -1.93       9.91      17.66
C      -2.21      10.08      19.02
C      -2.78      10.36      21.80
C      -2.08       8.63      15.53
C      -1.84      11.23      21.14
C      -1.58      11.09      19.81
