80

H       9.32      13.32       0.88
H      13.59      13.81       0.99
H      11.05      17.18       0.15
H      14.45       7.86       2.18
H      10.18       7.29       2.05
H      12.79       3.94       2.77
H      14.86       4.41       4.60
H      15.68       6.02       0.69
H      17.85       4.79       0.65
H      17.11       3.31       4.61
H       9.30       5.77       0.69
H      10.74       3.24       3.87
H       8.70       1.83       3.67
H       7.23       4.41       0.56
H      13.11      17.78      -1.00
H      14.49      15.38       2.29
H      16.58      16.72       2.39
H      15.16      19.18      -0.84
H       8.13      15.18       2.30
H       8.98      16.77      -1.60
H       6.77      17.95      -1.61
H       6.01      16.48       2.36
H      13.31      12.27       2.64
H      10.07      11.26      -0.01
H      10.43       8.88       0.46
H      13.67       9.88       3.11
C      10.05      15.29       0.44
C      10.21      13.94       0.76
C      11.48      13.39       0.96
C      12.60      14.23       0.86
C      12.47      15.60       0.57
C      11.19      16.11       0.33
C      13.75       5.85       2.55
C      13.57       7.22       2.28
C      12.29       7.75       2.09
C      11.19       6.88       2.16
C      11.34       5.51       2.40
C      12.63       5.01       2.63
C       6.53       2.31       2.03
C      17.30      18.76       0.87
C       5.05      18.13       0.53
C      18.82       3.12       2.48
C      15.53       4.52       3.74
C      15.12       5.28       2.64
C      15.99       5.43       1.55
C      17.21       4.75       1.53
C      17.60       3.97       2.62
C      16.78       3.90       3.75
C       9.16       4.93       1.37
C      10.16       4.63       2.32
C       9.98       3.49       3.13
C       8.84       2.70       3.03
C       7.83       3.04       2.12
C       8.01       4.16       1.28
C      13.86      17.56      -0.24
C      13.66      16.46       0.62
C      14.65      16.19       1.58
C      15.81      16.95       1.65
C      16.00      18.03       0.77
C      15.01      18.34      -0.16
C       7.83      15.78       1.44
C       8.71      15.90       0.35
C       8.31      16.68      -0.75
C       7.08      17.34      -0.75
C       6.26      17.28       0.38
C       6.64      16.49       1.48
C      12.68      11.53       2.14
C      11.67      11.95       1.27
C      10.85      10.97       0.69
C      11.05       9.62       0.96
C      12.08       9.19       1.82
C      12.89      10.18       2.41
O       6.36       1.20       2.61
O       5.63       2.95       1.37
O      17.46      19.90       0.32
O       4.25      18.32      -0.44
O      19.59       2.90       3.46
O      18.96       2.64       1.29
O       4.91      18.61       1.72
O      18.18      18.14       1.57
