23

C      13.95      14.48       8.08
N      18.45      14.06       3.38
C      15.92      15.18       9.28
H      16.73      13.44       2.43
O      12.43      15.16      10.30
H      20.09      14.63       4.49
C      14.53      15.00       9.24
O      14.29      15.82      11.44
C      17.15      13.73       3.39
C      19.03      14.39       4.55
C      13.68      15.36      10.43
H      15.32      13.52       4.46
H      18.86      14.78       6.63
C      16.38      13.78       4.55
C      18.32      14.47       5.74
H      14.24      13.81       6.08
H      17.77      15.06       8.24
C      16.94      14.20       5.76
H      12.87      14.34       8.05
C      16.12      14.40       6.98
H      16.37      15.57      10.20
C      14.73      14.19       6.97
C      16.70      14.89       8.17
