16

C       8.33      12.75       4.46
C       8.77      10.15       3.50
C       7.36      12.12       3.66
C       9.64      10.70       4.46
C       6.61      10.20       2.18
O       9.98      13.46       6.75
O       6.08      10.96       1.30
Br       8.14      14.60       4.81
Br       9.26       8.54       2.64
Br       5.70      13.01       3.38
Br      10.98       9.57       5.18
O       6.36       8.96       2.34
O      11.67      12.34       5.74
C      10.44      12.65       5.87
C       9.46      12.02       4.92
C       7.59      10.84       3.13
