27

H       8.43       3.79      21.88
C       9.70       1.16      26.25
C      10.95       4.45      20.14
O       8.61       3.83      15.36
H       7.46       1.88      20.02
H      12.05       2.07      21.76
H      11.06       0.15      19.91
H       8.74      -0.16      21.53
O      10.87       3.68      15.14
H      11.19       5.06      21.02
H      11.89       4.27      19.59
H      10.29       5.03      19.48
O      10.84       0.96      26.77
O       8.56       0.96      26.82
C      10.48       0.96      20.36
C      11.03       2.02      21.36
C       9.67       1.59      24.88
C       9.81       2.73      16.98
C       9.19       0.79      21.23
C       9.74       1.86      22.26
C       8.47       1.92      20.42
C       9.76       2.09      19.52
C       9.02       2.99      21.42
C      10.32       3.17      20.56
C       9.70       1.73      23.67
C       9.75       3.44      15.73
C       9.79       2.34      18.14
