36

O      21.13       4.85       1.90
O      20.26       4.92      -0.42
O      23.90      10.88      -1.93
O      22.46      11.72      -0.04
O      24.74      10.86       0.35
O      19.37       9.16       1.76
O      18.90       6.90       0.80
O      20.28       7.18       2.85
O      26.25       8.54      -0.99
O      25.44       6.37      -1.95
O      24.71       8.46      -2.95
H      19.59       5.56      -0.03
H      24.52      11.34       1.17
H      20.54       6.21       2.65
H      24.56       9.43      -2.75
H      22.34       6.61      -2.14
H      22.71       9.06       2.08
C      22.15       6.56       0.22
C      22.91       9.13      -0.28
C      22.42       7.16      -1.19
C      22.63       8.52       1.13
C      21.60       8.45      -0.84
C      23.45       7.23       0.77
C      21.33       7.85       0.60
C      23.72       7.83      -0.66
C      24.48       6.65       1.70
C      20.56       9.05      -1.74
S      21.55       4.91       0.51
S      23.42      10.80      -0.57
S      19.79       7.82       1.49
S      25.23       7.75      -1.61
O      24.23       5.49       2.15
O      20.76      10.25      -2.09
O      25.45       7.42       1.95
O      19.61       8.27      -2.04
O      22.44       3.93      -0.02
