23

H       7.59      15.01      13.83
H       7.01      13.57      15.78
H       4.90      10.89      13.13
H       5.40      12.41      11.23
H       5.18      11.13      19.12
H       5.59      12.75      17.27
C       6.87      14.67      11.23
C       6.52      13.80      12.41
C       6.97      14.12      13.70
C       6.65      13.31      14.78
C       5.93      12.11      14.60
C       5.50      11.79      13.30
C       5.77      12.63      12.23
C       5.28      10.79      18.09
C       5.52      11.68      17.05
C       5.65      11.21      15.73
C       5.52       9.82      15.55
C       5.26       9.00      16.64
N       5.14       9.47      17.89
O       8.01      15.23      11.27
O       6.02      14.75      10.29
H       5.64       9.37      14.56
H       5.13       7.92      16.52
