26

N      12.61       6.58      12.59
N      16.31       9.26       3.45
Cl      15.92       6.81      11.83
Cl      13.00       9.04       4.21
Cl      18.17       9.69       6.13
Cl      10.76       6.15       9.91
Cl      18.19       6.13       9.89
Cl      10.73       9.71       6.15
C      17.29       8.62       7.10
C      11.63       7.23       8.94
C      17.30       7.24       8.97
C      11.63       8.61       7.07
C      15.89       7.37       9.14
C      13.03       8.47       6.90
C      15.18       7.92       8.03
C      13.75       7.92       8.01
C      15.89       8.48       6.93
C      13.03       7.36       9.11
C      15.14       7.03      10.32
C      13.78       8.82       5.72
C      13.75       7.00      10.30
C      15.17       8.85       5.74
C      13.08       6.75      11.54
C      15.84       9.10       4.50
N      17.97       7.93       8.03
N      10.95       7.92       8.01
