52

C       5.63       2.10       8.98
C       6.85       2.95       9.24
C       6.95       4.13       8.27
C       1.25       2.78      16.13
C       0.03       1.92      15.87
C      -0.07       0.74      16.83
N       4.36       1.46      12.80
N       2.52       3.44      12.31
N       4.32       2.51      13.60
N       2.57       2.39      11.52
O       2.20       8.27      17.53
O       4.65      -3.31       7.51
O       4.46       8.17      17.64
O       2.38      -3.34       7.56
H       4.70       2.68       9.06
H       5.66       1.63       7.99
H       6.82       3.31      10.27
H       7.75       2.32       9.17
H       7.01       3.79       7.22
H       7.85       4.72       8.48
H       6.09       4.80       8.36
H       1.22       3.25      17.13
O       5.62       1.06      10.01
O       1.26       3.83      15.11
H       2.18       2.20      16.04
H      -0.87       2.56      15.94
H       0.06       1.57      14.83
H       0.80       0.08      16.74
H      -0.97       0.15      16.62
H      -0.13       1.07      17.88
C       3.33       7.81      17.19
C       3.52      -2.92       7.93
F       1.49      -2.59       9.96
F       5.38       7.49      15.18
F       1.48      -0.59      11.73
F       5.40       5.49      13.41
F       5.58      -0.91       8.11
F       1.29       5.80      17.00
C       2.49      -1.70       9.90
C       4.38       6.59      15.23
C       2.49      -0.66      10.83
C       4.39       5.56      14.30
C       3.52       0.28      10.85
C       3.36       4.61      14.27
C       4.58       0.17       9.94
C       2.29       4.71      15.18
C       4.56      -0.87       9.01
C       2.31       5.76      16.11
C       3.53      -1.82       8.96
C       3.33       6.71      16.17
C       3.41       3.47      13.33
C       3.48       1.43      11.79
