36

C       7.26       1.48       2.82
C       8.07       0.36       2.88
C       8.91       0.07       1.79
C       8.90       0.93       0.69
C       8.06       2.03       0.71
N       7.25       2.30       1.75
C      10.63      -6.37       4.57
C      10.87      -5.37       3.63
H       6.58       1.75       3.63
H       8.07      -0.28       3.76
C       9.37      -3.95       4.87
H       8.01       2.74      -0.12
N      15.13      -2.24      -1.38
N      11.51      -3.17       1.99
N       9.59      -2.02       2.80
N      10.79      -1.16       0.93
C      13.67      -3.34       0.18
C      12.86      -2.20       0.24
C      13.22      -1.07      -0.51
C      14.79      -3.32      -0.64
C      11.65      -2.18       1.09
C      10.45      -3.06       2.79
C       9.81      -1.11       1.84
C      10.22      -4.14       3.78
C      14.36      -1.13      -1.30
H      11.52      -5.55       2.78
H      11.10      -7.35       4.49
H       8.86      -3.00       5.01
H      15.46      -4.18      -0.73
H      13.41      -4.22       0.75
H      12.61      -0.17      -0.47
H      14.69      -0.29      -1.91
H       8.61      -4.87       6.68
C       9.22      -4.99       5.78
H       9.55       0.73      -0.16
N       9.83      -6.18       5.63
