48

H      14.00       7.89       2.39
H      13.22      10.00       6.07
H      14.74       5.97       6.18
H      14.12       8.04      16.01
H      13.28      10.07      12.30
H      14.76       6.02      12.26
H      13.34       5.99      10.46
H      14.62      10.10      10.41
H      14.61      10.08       7.95
H      13.33       5.96       7.99
C      12.41      12.41       2.11
C      12.57      12.59      16.20
C      15.58       3.37       2.34
C      15.70       3.54      16.17
C      14.39       6.79       4.22
C      14.00       7.91       3.48
C      13.59       9.08       4.15
C      13.57       9.10       5.56
C      13.98       7.99       6.31
C      14.39       6.84       5.62
C      14.46       6.89      14.21
C      14.09       8.04      14.93
C      13.68       9.19      14.23
C      13.63       9.18      12.82
C      14.01       8.05      12.10
C      14.43       6.91      12.80
C      13.64       6.88       9.91
C      13.98       8.04      10.62
C      14.31       9.19       9.88
C      14.31       9.18       8.49
C      13.97       8.02       7.78
C      13.63       6.87       8.52
C      15.25       4.71      15.46
C      14.89       5.72      14.89
C      13.30      10.36      14.94
C      12.98      11.37      15.54
C      15.15       4.57       3.02
C      14.80       5.60       3.56
C      13.18      10.22       3.42
C      12.83      11.22       2.80
O      11.25      12.86       2.41
O      13.23      12.91       1.28
O      11.42      13.05      15.87
O      13.39      13.09      17.03
O      16.70       2.87       2.70
O      14.81       2.94       1.42
O      16.83       3.06      15.83
O      14.93       3.11      17.09
