13

H      18.83       9.17      12.22
C      17.53       8.26      13.69
O      16.33       7.83      13.59
O      16.85       9.73      11.94
C      17.93       9.43      12.81
H      18.00      10.59      10.42
O      16.02      12.05       9.43
C      15.92      11.05      10.19
H      17.35      11.73      11.65
H      18.17      10.29      13.45
O      14.95      10.23      10.28
O      18.44       7.85      14.45
C      17.13      10.82      11.07
