20

C       1.41      12.32      11.04
C       0.51      11.26      11.07
H      -2.60       7.39      10.85
C       3.70      13.30      11.37
H       0.98       7.71      13.05
H       2.74       8.73      11.67
H       4.33      10.66      11.60
H       1.04      13.33      10.85
H      -0.55      11.42      10.92
N       0.10       8.90      11.48
N      -1.07       8.85      10.76
N      -0.93       7.11      12.19
C      -1.65       7.76      11.22
C       0.17       7.86      12.34
C       1.01       9.98      11.34
O       3.15      14.47      11.39
C       2.38       9.74      11.51
O       4.95      13.14      11.42
C       3.26      10.82      11.47
C       2.78      12.12      11.28
