28

C       2.62       3.91       9.81
C       7.24       6.65       4.11
H       1.61       3.50       9.93
C       3.49       4.05      10.89
C       6.54       5.47       9.14
H       3.18       3.76      11.89
C       4.76       4.56      10.65
N       2.97       4.24       8.56
H       5.47       4.67      11.47
C       5.16       4.92       9.35
N       3.49       4.69       5.99
H       4.92       4.88       2.36
C       4.22       4.73       8.32
N       3.98       4.96       4.76
H       6.39       5.67       0.51
C       4.46       5.01       6.89
N       5.56       5.52       6.30
H       8.86       7.70       3.15
C       5.22       5.46       4.99
N       7.68       6.73       1.74
H       7.51       6.95       5.12
C       6.09       5.87       3.89
H       6.73       5.69       8.09
C       5.79       5.49       2.57
H       7.29       4.75       9.50
C       6.61       5.94       1.54
H       6.67       6.39       9.74
C       7.99       7.06       3.01
