16

S      28.16      18.07      29.03
C      30.51      17.35      27.51
C      29.46      20.34      29.25
C      31.70      17.97      27.13
C      28.29      19.70      29.63
C      30.27      19.48      28.47
C      29.70      18.21      28.28
Br      29.96      15.61      27.08
O      33.76      18.30      26.10
O      32.80      16.22      26.02
O      26.21      19.48      30.66
O      27.38      21.44      30.90
C      32.83      17.45      26.36
C      27.21      20.25      30.45
S      31.81      19.61      27.70
H      29.69      21.36      29.54
