28

Br       5.32      -3.97      17.68
H       9.66      -1.60      14.72
H       7.97      -2.97      18.43
Br       7.56      -2.08      12.74
Br       4.40      -3.02      10.96
Br       2.20      -4.99      15.89
H       1.74      -3.99      10.22
H       0.10      -5.50      13.90
O      -1.31      -5.85      11.94
O      -0.56      -4.80      10.06
O      11.18      -1.49      16.63
O      10.17      -1.93      18.63
C      -0.45      -5.17      11.28
C      10.19      -1.86      17.36
C       8.94      -2.25      16.64
C       8.83      -2.04      15.26
C       7.66      -2.40      14.60
C       6.56      -2.99      15.28
C       6.72      -3.18      16.68
C       7.88      -2.82      17.35
C       5.38      -3.35      14.61
C       4.36      -3.67      14.02
C       3.18      -4.04      13.35
C       3.01      -3.82      11.95
C       1.84      -4.18      11.29
C       0.80      -4.78      11.99
C       0.92      -5.03      13.36
C       2.08      -4.66      14.02
