26

H      11.83       6.51      10.00
H      13.08       5.55      10.79
H      14.69       6.51       9.40
H      13.45       7.49       8.62
H      15.89       7.42      11.48
O      11.71       6.91      13.95
O      10.54       6.28      12.10
H      13.84       8.08      13.46
H      14.27       6.48      12.87
H      15.48       9.02      12.09
H      12.05       9.44      12.30
H      11.23       8.79      10.87
H      12.86       9.76       9.51
H      13.68      10.40      10.95
O      15.30       9.12       8.11
O      16.49       9.68       9.95
C      11.54       6.81      12.69
C      12.63       7.41      11.80
C      12.80       6.58      10.51
C      13.87       7.22       9.60
C      14.45       8.48      10.26
C      15.05       8.12      11.63
C      13.97       7.49      12.54
C      13.29       9.48      10.49
C      12.20       8.84      11.39
C      15.50       9.14       9.37
