17

H       4.66       2.67       1.32
O       4.07       2.66       7.11
C       2.62       3.52       5.37
C       7.11       1.33       1.99
C       6.02       1.86       2.81
H       4.93       2.21       7.18
O       7.01       1.47       0.72
O       8.08       0.77       2.62
O       0.56       4.60       5.50
O       1.60       3.94       7.44
C       3.78       2.89       5.81
C       4.87       2.50       2.38
S       2.53       3.67       3.63
S       6.12       1.72       4.54
C       4.05       2.87       3.46
C       4.60       2.51       4.71
C       1.52       4.06       6.17
