16

H       6.54       9.18       3.68
H      10.61       8.31       2.64
C       9.43      10.35       5.09
O       9.00       7.45       1.13
C       9.90      11.37       6.07
O       6.82       7.72       1.75
C      10.36       9.67       4.30
C       8.06      10.16       4.88
H       7.35      10.72       5.50
O       8.96      12.06       6.61
O      11.14      11.49       6.24
H      11.42       9.84       4.47
C       8.07       7.86       1.89
C       8.53       8.66       3.07
C       7.60       9.32       3.88
C       9.91       8.82       3.29
