30

O       3.52       2.57      10.32
H       0.75      -0.24      11.72
H       2.13      -1.02      15.75
H       0.72      -2.47       9.11
H       3.64      -4.77      11.08
H       1.86      -0.10       9.22
H       3.64      -0.13       9.30
H      -0.06       0.32      14.27
H       0.28      -1.34      13.79
H       3.69       0.35      11.63
H       1.70      -1.32      18.13
H       1.88       0.44      18.06
C       1.62      -2.71       9.66
C       0.43      -0.32      16.66
C       3.11      -3.90      10.69
C       2.54       1.93      10.76
C       2.72      -0.39       9.84
C       0.73      -0.44      14.25
C       2.63      -1.87      10.07
C       2.72       0.45      11.14
C       1.14      -0.38      18.02
C       1.89       0.05      13.39
N       1.70      -0.01      12.07
N       0.17      -0.25      19.11
N       3.58      -2.64      10.73
N       1.93      -4.00      10.06
N       1.17      -0.68      15.60
O       1.34       2.38      10.87
O       2.96       0.43      13.92
O      -0.75       0.09      16.58
