36

H       4.31       6.50      13.92
H       5.06      10.36      25.18
H       2.98       7.13      18.29
H       6.39       9.73      20.80
H       3.02       7.05      20.76
H       6.35       9.81      18.33
H       5.16      10.70      14.06
H       4.21       6.16      25.04
H       5.10      10.64      16.55
H       4.27       6.22      22.55
H       4.20       6.43      16.40
H       5.17      10.43      22.69
C       4.52       8.21      26.75
C       4.85       8.64      12.35
C       4.96       9.77      14.59
C       4.41       7.09      24.51
C       4.93       9.73      15.98
C       4.44       7.13      23.12
C       4.65       8.52      16.66
C       4.72       8.33      22.44
C       4.40       7.37      15.89
C       4.97       9.49      23.20
C       4.46       7.40      14.51
C       4.91       9.45      24.59
C       4.75       8.60      13.84
C       4.62       8.25      25.26
C       3.74       7.68      18.84
C       5.63       9.17      20.26
C       3.77       7.64      20.23
C       5.60       9.22      18.87
C       4.71       8.38      20.97
C       4.66       8.47      18.13
O       4.52       7.06      27.28
O       4.85       9.80      11.82
O       4.44       9.33      27.36
O       4.93       7.53      11.74
