28

C       9.69       0.53       1.43
H      12.05       1.21       2.50
H      13.55       4.24      11.32
H       8.99       2.98       9.78
O      12.88       4.88      13.57
O      10.68       0.32       0.68
O       8.47       0.20       1.15
H      12.49       2.02       4.82
H      13.20       3.48       8.96
H       9.37       3.74      12.13
H       8.26       1.96       5.64
H       7.83       1.13       3.31
O      10.64       4.81      13.93
C      11.48       4.02      11.86
C      10.20       3.67      11.43
C       9.99       3.25      10.12
C      11.67       4.59      13.23
C      11.07       3.19       9.21
C      12.37       3.53       9.66
C      12.56       3.95      10.97
C      11.48       1.83       4.48
C      11.23       1.39       3.19
C       8.85       1.34       3.65
C       9.08       1.79       4.95
C      10.41       2.04       5.39
C      10.65       2.45       6.71
C      10.85       2.79       7.87
C       9.92       1.13       2.77
