26

O      10.51      20.91      14.74
O      11.64      19.72      16.31
O      16.41      24.70      16.23
O      15.14      25.82      14.71
H      11.69      22.84      17.20
H      11.10      23.38      15.62
H      12.70      25.08      15.62
H      13.29      24.53      17.19
H      13.65      24.14      13.50
H      14.95      22.94      13.55
H      12.08      22.41      13.51
H      13.38      21.22      13.59
H      13.54      21.11      17.34
H      14.22      20.43      15.87
H      15.82      22.13      15.82
H      15.15      22.80      17.30
C      11.50      20.72      15.52
C      15.39      24.83      15.48
C      12.00      23.07      16.17
C      13.06      24.20      16.17
C      14.36      23.70      15.50
C      14.03      23.27      14.05
C      12.98      22.13      14.07
C      12.58      21.79      15.52
C      13.82      21.36      16.31
C      14.89      22.48      16.28
