20

C      24.16      -0.37      28.31
C      22.05       0.74      26.66
C      24.19      -0.46      26.92
C      22.03       0.82      28.08
C      23.17       0.08      26.14
C      23.05       0.28      28.87
C      24.97      -0.97      25.73
C      23.82      -0.36      24.84
H      22.99       0.38      29.95
H      25.96      -0.52      25.59
H      25.08      -2.06      25.67
H      23.24      -1.08      24.25
H      24.12       0.46      24.17
Cl      20.74       1.58      28.96
C      21.01       1.29      25.73
O      20.03       1.91      26.22
C      25.23      -0.93      29.19
O      21.23       1.07      24.49
O      25.10      -0.75      30.45
O      26.18      -1.55      28.60
