20

H       4.81       1.92       5.37
H       5.26       0.59       4.26
H       6.32       2.03       4.40
H       3.30       6.25       5.16
H       1.36       6.40       3.60
H       0.97       4.55       1.95
C       5.29       1.67       4.41
C       3.78       3.34       3.47
C       4.02       4.40       4.36
C       3.11       5.47       4.43
C       2.03       5.55       3.56
C       1.81       4.52       2.64
C       2.65       3.40       2.62
C       2.27       2.23       1.77
C       5.25       4.53       5.20
O       4.55       2.23       3.31
O       2.04       1.13       2.37
O       2.15       2.46       0.52
O       6.37       4.44       4.61
O       5.05       4.78       6.44
