28

C      13.20      14.67      11.42
C      16.76      12.15      15.03
C      15.24      14.90      13.30
H      11.28      13.52      11.73
C      14.75      12.23      13.33
H      17.82      13.46      16.53
C      15.18      13.05      12.08
H      14.38      16.09      10.13
H      16.44      10.07      14.22
C      14.82      14.07      14.57
C      14.12      14.17      12.45
H      15.29      12.67      11.05
C      15.85      12.94      14.18
H      14.67      14.46      15.58
H      15.43      15.98      13.29
H      14.55      11.15      13.35
H      17.31      13.98      12.60
N      11.50      14.67       9.94
H      12.69      13.16      14.06
N      18.25      11.38      16.54
N      12.48      15.47       9.43
N      17.84      10.30      15.78
C      16.27      13.79      12.91
C      13.72      13.34      13.72
C      11.92      14.18      11.14
C      17.63      12.49      16.08
C      13.50      15.49      10.32
C      16.95      10.76      14.89
