29

C       1.29       9.91       8.38
C       1.87       7.60       8.71
H      -0.04       8.46       9.28
C       1.48       6.17       8.99
H      -0.02       6.90       7.16
C       3.13       7.89       8.17
H       0.61      10.76       8.46
C       3.39       9.17       7.71
H       2.25       5.67       9.61
C       1.15       4.63       4.81
H       0.52       6.12       9.51
C       0.67       5.98       5.36
H       3.90       7.13       8.08
C       1.66       7.12       5.08
H       4.34       9.43       7.25
H       2.04       4.26       5.35
H       1.41       4.72       3.75
N       2.48      10.16       7.79
H       0.38       3.86       4.91
N       1.37       5.41       7.72
H      -0.27       6.24       4.84
O      -1.99       5.45       6.40
H       1.29       8.07       5.48
O      -0.95       4.01       7.78
H       1.78       7.24       3.99
H       2.65       6.93       5.51
C      -0.98       5.04       7.04
C       0.95       8.64       8.85
C       0.28       5.89       6.85
