20

H       3.78       2.81      15.16
H       7.47       2.73      11.88
H       3.05       1.03      12.10
H       2.50       1.48      13.69
H       8.20       4.52      14.93
H       8.76       4.07      13.35
C       5.36       1.50      10.93
C       5.89       4.04      16.10
C       5.45       2.16      12.26
C       5.81       3.38      14.78
C       4.37       2.16      13.19
C       6.89       3.38      13.84
C       4.59       2.78      14.43
C       6.67       2.76      12.61
N       3.13       1.62      12.92
N       8.13       3.92      14.12
O       6.43       1.38      10.24
O       4.21       1.07      10.56
O       7.04       4.48      16.48
O       4.83       4.17      16.80
