22

H       4.25       6.58      18.89
H       5.60       1.20      18.89
H       6.72       7.02      18.88
C       8.70       5.20      18.93
C       1.14       2.58      18.93
H       3.13       0.76      18.88
H       7.47       2.78      18.89
H       2.37       5.00      18.89
C       4.96       5.77      18.88
C       4.88       2.02      18.88
C       6.32       6.01      18.88
C       3.52       1.78      18.88
C       7.24       4.92      18.89
C       2.61       2.86      18.89
C       6.77       3.62      18.88
C       3.07       4.17      18.88
C       5.38       3.34      18.87
C       4.46       4.44      18.87
O       9.10       6.41      18.93
O       0.74       1.37      18.93
O       9.53       4.22      18.98
O       0.31       3.56      18.98
