16

H       3.15       4.75       7.75
H      -1.26       7.22       5.37
H       3.59       7.74       4.93
H      -1.70       4.20       8.16
H       0.79       3.95       8.47
H       1.10       7.99       4.63
C       1.24       5.51       7.01
C       0.38       4.68       7.77
C       1.52       7.27       5.33
C      -0.98       4.81       7.62
C       2.88       7.14       5.48
C      -0.75       6.51       6.03
C       2.65       5.45       7.09
C       0.66       6.45       6.10
N       3.42       6.24       6.36
N      -1.53       5.71       6.75
