46

O      -1.95      20.15      10.75
O      -0.31      18.64      10.65
O       2.14      19.26      11.55
O      -5.00      33.35      20.13
O      -6.64      34.86      20.23
H      -5.49      31.46      18.67
H      -9.39      30.12      17.48
H     -10.38      32.26      18.31
O      -9.09      34.23      19.34
H      -1.44      28.48      14.64
H      -0.28      26.45      13.77
H      -3.43      29.52      15.74
H      -1.46      22.04      12.22
H       2.44      23.38      13.40
H       3.43      21.24      12.58
H      -3.52      23.98      15.15
H      -5.51      25.02      16.25
H      -6.67      27.05      17.12
C      -6.19      33.71      19.85
C      -7.10      32.83      19.10
C      -6.56      31.65      18.56
C      -7.36      30.70      17.92
C      -8.75      30.90      17.90
C      -9.31      32.08      18.37
C      -8.51      33.09      18.95
C      -5.09      28.40      16.49
C      -3.86      28.53      15.86
C      -3.17      27.40      15.36
C      -1.90      27.50      14.73
C      -1.26      26.38      14.25
C      -0.76      19.79      11.03
C       0.15      20.67      11.79
C      -0.40      21.85      12.33
C       0.41      22.80      12.96
C       1.80      22.60      12.98
C       2.35      21.42      12.51
C       1.55      20.41      11.94
C      -1.86      25.10      14.40
C      -3.09      24.97      15.03
C      -3.78      26.10      15.52
C      -5.05      26.00      16.16
C      -5.70      27.12      16.63
N      -6.86      29.52      17.34
N      -5.64      29.60      16.99
N      -0.09      23.98      13.54
N      -1.31      23.90      13.90
