26

N      20.29      10.87      11.07
O      18.97      12.03      14.27
O      22.51       6.72      13.95
O      22.53       5.20      12.24
H      19.40      10.17      13.56
H      19.21      13.83      11.99
H      20.05      13.68       9.40
H      20.88      11.10       9.04
H      20.49       5.08      10.82
H      19.45       5.97       9.66
H      21.17       5.70       9.32
O      19.35       9.05       8.27
O      17.94       8.43       9.94
C      19.36      11.27      13.38
C      19.77      11.72      12.06
C      19.62      12.97      11.48
C      20.04      12.89      10.14
C      20.46      11.58       9.91
C      20.65       9.52      11.22
C      21.60       7.36      11.91
C      22.26       6.35      12.74
C      20.78       7.21      10.80
C      20.45       5.92      10.12
C      20.22       8.47      10.42
C      19.09       8.66       9.45
S      21.71       8.99      12.47
