16

H       8.07       8.28       4.10
C       8.34       6.34       3.18
C       8.66       7.69       3.39
C       9.72       8.25       2.68
O      10.60       4.20       0.23
C       7.23       5.72       3.95
O       6.81       6.36       4.96
O       6.81       4.58       3.54
C       9.06       5.56       2.27
H       8.79       4.52       2.09
C      10.15       6.13       1.60
C      10.48       7.47       1.82
H      11.32       7.89       1.26
C      10.92       5.36       0.58
O      10.07       9.59       2.79
O      11.91       6.00       0.03
