42

C      13.69      -0.20       8.06
H       8.54       6.79       9.85
H       8.13       4.35       9.59
H      11.15       0.68       9.26
H      14.79       2.06      11.10
N      10.21      11.30      10.06
H      11.56      10.31      11.35
N       9.23      10.90       9.20
H       8.44       7.94       8.26
H       7.26       8.90       8.90
N      15.52      -1.13       8.78
H      15.52      -0.43      10.78
N      14.70      -1.00       7.68
N       8.18       8.90       8.46
H       9.08       2.08       9.40
H      15.38       4.83      13.23
H      15.11       3.20      12.97
N      15.04       4.13      12.59
H      12.31       8.17      11.44
H      13.87       6.52      12.49
H      12.91       0.08       7.35
C      13.85       0.22       9.40
C      10.76      10.21      10.62
C       9.15       9.55       9.26
C      15.02      -0.41       9.81
C      10.12       9.04      10.15
C      11.64       7.36      11.16
C      10.42       7.66      10.52
C       9.55       6.59      10.23
C       9.95       5.26      10.37
C      11.25       4.98      10.89
C      12.06       6.04      11.38
C       9.16       4.16       9.91
C       9.68       2.90       9.81
C      11.04       2.63      10.17
C      11.78       3.67      10.82
C      13.11       3.40      11.27
C      13.81       4.44      12.00
C      13.30       5.72      12.01
C      11.70       1.44       9.81
C      13.07       1.26      10.08
C      13.73       2.20      10.89
