50

H       2.91       5.75       7.57
H       5.00       8.87      -1.27
H       7.11       5.62      -5.11
H       5.05       8.86       1.26
H       7.18       5.42       7.61
H       4.95       2.14      -1.31
H       4.97       2.13       1.22
H       7.13       5.63      -7.63
H       2.85       5.40      -7.67
H       2.93       5.65       5.06
C       5.03       7.93       0.69
C       5.00       7.94      -0.71
C       4.99       6.74      -1.43
C       4.99       5.50      -0.74
C       4.97       4.27      -1.44
C       4.97       3.07      -0.74
C       4.98       3.06       0.66
C       4.98       6.78      -2.91
C       4.97       4.26      -2.92
C       6.18       5.58      -5.68
C       4.98       5.48      -9.28
C       6.20       5.59      -7.07
C       4.99       5.52      -7.78
C       3.77       5.46      -7.09
C       3.76       5.48      -5.70
C       4.97       5.53      -4.99
C       3.85       5.59       5.63
C       3.84       5.65       7.02
C       5.05       5.60       7.73
C       6.26       5.46       7.04
C       6.27       5.41       5.65
C       5.06       5.48       4.94
C       5.06       5.70       9.22
C       5.01       4.22       2.86
C       5.06       6.74       2.87
C       5.03       6.73       1.39
C       5.00       5.50       0.69
C       5.00       4.26       1.37
I       8.10       5.25       4.63
I       1.92       5.42      -4.69
N       5.04       5.48       3.50
N       4.98       5.52      -3.55
O       5.10       7.77       3.53
O       4.96       7.82      -3.56
O       4.97       3.23      -3.59
O       3.87       5.18      -9.84
O       6.07       5.74      -9.89
O       3.94       5.89       9.80
O       6.19       5.60       9.80
O       4.99       3.19       3.51
