22

H       1.90       6.88       9.03
H       6.10       6.88       9.03
H       1.90       6.88      18.49
H       6.10       6.88      18.49
C       2.83       6.88       9.60
C       2.82       6.88      10.99
C       4.00       6.88      11.75
C       5.19       6.88      10.99
C       5.17       6.88       9.60
C       4.00       6.88      13.15
C       4.00       6.88      14.37
C       4.00       6.88      15.78
C       2.82       6.88      16.54
C       2.83       6.88      17.92
C       5.17       6.88      17.92
C       5.19       6.88      16.54
N       4.00       6.88       8.93
N       4.00       6.88      18.59
F       6.37       6.88      11.63
F       1.63       6.88      11.63
F       6.37       6.88      15.89
F       1.63       6.88      15.89
