50

O      -0.03       4.60      19.13
O      -0.54       8.60      26.55
H       1.14       9.81      22.08
O       1.47       8.89      19.77
H       0.41       9.71      24.50
H      -1.74       3.40      23.59
O      -2.07       4.31      25.91
H      -0.60       8.02      17.54
H      -4.37       6.82      29.65
H       0.06       8.15      15.12
H      -0.37       5.62      30.66
H       3.56       5.82      15.94
H       0.28       5.75      28.23
H       2.89       5.65      18.36
H      -3.71       6.98      27.23
H      -1.00       3.50      21.17
C      -2.80       6.13      31.74
C       2.23       7.06      13.95
C       0.13       5.54      19.90
C      -0.71       7.65      25.78
C       0.94       7.90      20.25
C      -1.54       5.31      25.43
C       0.50       7.81      21.66
C      -1.10       5.39      24.01
C      -0.09       6.63      22.16
C      -0.50       6.57      23.52
C      -0.28       5.50      21.32
C      -0.31       7.70      24.35
C       0.68       8.91      22.50
C      -1.28       4.30      23.18
C       0.28       8.85      23.84
C      -0.87       4.35      21.84
C      -2.99       6.68      27.99
C       0.30       7.53      17.18
C      -3.35       6.60      29.33
C       0.67       7.60      15.84
C      -2.41       6.22      30.29
C       1.84       6.98      15.39
C      -1.09       5.92      29.90
C       2.65       6.28      16.30
C      -0.73       5.99      28.56
C       2.28       6.20      17.64
C      -1.68       6.38      27.61
C       1.11       6.82      18.07
N       0.72       6.75      19.46
N      -1.30       6.45      26.22
O      -1.85       6.02      32.59
O       1.35       7.48      13.13
O      -4.04       6.17      32.00
O       3.42       6.70      13.65
