19

H      -2.50       4.83       6.64
H      -5.06       0.10       3.35
H      -3.58       4.66       4.44
H      -4.83       2.90       2.25
C      -4.42       0.11       5.47
C      -3.95       3.72       4.04
C      -4.47       3.77       2.79
C      -3.84       2.55       4.88
C      -4.33       1.31       4.57
C      -4.53       5.04       2.03
S      -2.93       2.75       6.42
O      -4.88       4.91       0.81
O      -4.67      -0.98       4.84
O      -4.23       6.13       2.63
O      -3.80       3.02       7.54
O      -1.93       1.72       6.46
O      -2.10       4.10       6.13
O      -4.85       1.06       3.35
O      -4.32       0.27       6.71
