15

O      11.09       8.10       5.91
O       9.33       9.50       5.72
O      10.71      14.48       5.37
H      10.14      11.99       5.59
H      14.07      13.12       6.93
H      14.61      10.66       7.15
O      12.59      15.03       6.49
C      11.51      10.40       6.12
N      12.75      10.04       6.52
C      12.08      12.73       6.22
C      11.14      11.74       5.94
C      13.63      11.00       6.81
C      10.55       9.26       5.89
C      11.76      14.20       6.01
C      13.34      12.35       6.69
