74

C       6.99       5.46      14.45
C       6.95       6.67      12.27
C       7.03       6.67      13.69
C       7.05      12.70       9.88
C       5.93      11.25      11.46
C       5.94      12.40      10.68
C       6.96       1.93      21.11
C       7.05       5.48      15.82
C       7.21       6.76      17.95
C       7.16       6.72      16.54
C       5.91       4.02      20.21
C       5.99       5.19      19.46
C       7.16       5.51      18.75
C       5.61       3.93      10.03
C       5.69       5.10      10.78
C       6.86       5.40      11.50
H       8.97       9.97      10.59
H       9.01      12.08       9.24
O       8.71      14.38      21.51
H       8.72       2.68      10.60
O       7.69       1.14       8.96
O       8.20      14.25       8.51
H       8.86       4.74      11.99
H       9.50      12.20      20.71
O       8.04       1.28      21.27
H       9.37      10.08      19.39
H       9.05       2.82      19.67
H       9.17       4.89      18.28
O       6.00      14.61       8.92
O       5.82       1.60      21.59
O       6.49      14.72      21.18
O       5.48       1.52       8.63
H       7.42      11.35      16.25
H       7.31       8.01      19.70
H       7.30      11.31      13.80
H       6.87       7.86      10.49
H       6.90       4.51      13.93
H       7.01       4.55      16.38
H       5.07      11.02      12.09
H       5.09      13.08      10.68
H       4.85       5.79      10.82
H       4.70       3.68       9.48
H       5.50      13.21      19.54
H       5.38      11.13      18.15
H       5.13       5.86      19.41
H       5.00       3.76      20.75
C       8.60      11.95      20.15
C       8.52      10.77      19.41
C       7.37      10.47      18.68
C       8.15      11.83       9.85
C       8.12      10.66      10.61
C       7.02       3.16      20.28
C       8.26       4.64      18.82
C       8.19       3.49      19.59
C       6.70       3.05       9.96
C       7.95       4.51      11.44
C       7.87       3.35      10.67
C       7.57      14.07      21.02
C       7.30      10.40      15.73
C       7.17       7.95      15.80
C       7.29       9.20      17.91
C       7.24       9.20      16.49
C       7.28       7.99      18.61
C       7.51      12.83      20.19
C       6.28      11.36      18.71
C       6.34      12.52      19.48
C       7.08      13.94       9.05
C       7.24      10.38      14.36
C       7.10       7.92      14.38
C       7.01       9.11      12.23
C       7.10       9.15      13.64
C       6.94       7.88      11.58
C       7.02      10.36      11.43
C       6.61       1.82       9.13
