24

O      18.08       8.17       2.96
O      17.96      10.44       2.87
H      17.80      10.58       9.75
H      17.84       6.30       9.93
H      17.97       7.30       5.18
H      17.90      11.58       5.00
O      17.85       7.44      12.07
O      17.72       9.71      11.98
O      17.81      12.01       7.53
O      17.87       5.87       7.41
H      17.78      11.95       8.50
H      17.86       5.94       6.43
C      18.00       9.33       3.49
C      17.80       8.55      11.45
C      17.82       9.64       9.21
C      17.85       7.21       9.33
C      17.87       7.12       7.95
C      17.88       8.30       7.14
C      17.93       8.24       5.73
C      17.90      10.67       5.61
C      17.85      10.76       6.98
C      17.85       9.58       7.80
C      17.83       8.48       9.96
C      17.94       9.41       4.98
