16

H       4.63       6.02       1.23
H       0.97       3.72      -1.23
H       1.01       3.71       1.28
H       4.60       6.03      -1.28
C       3.84       5.52       0.68
C       1.77       4.21      -0.68
C       2.83       4.87       1.40
C       2.78       4.87      -1.40
C       2.86       4.88       2.89
C       2.75       4.86      -2.89
C       1.79       4.21       0.71
C       3.81       5.53      -0.71
O       1.89       4.33       3.51
O       3.72       5.41      -3.51
O       3.87       5.45       3.43
O       1.74       4.29      -3.43
