22

C      12.32      13.57      17.43
C      11.36      12.89      23.14
H      13.71      14.63      19.45
H       9.79      12.10      21.13
H      11.52      15.32      17.37
H      10.13      14.37      23.25
C       9.79      12.25      18.48
O       8.90      11.50      19.01
O       9.87      12.58      17.25
C      13.61      14.65      22.10
C      10.83      12.81      19.39
C      12.65      13.96      21.18
C      11.95      13.50      18.89
C      11.56      13.22      21.68
C      12.84      14.08      19.80
C      10.65      12.67      20.77
O      13.31      14.64      23.34
O      14.62      15.20      21.56
O      12.06      14.75      16.79
O      12.92      12.68      16.87
O      10.42      13.63      23.81
O      11.91      11.95      23.68
