36

N       1.12      10.83       6.43
H       0.51      11.08      14.23
H      -0.05       7.82      11.41
O       1.80      10.41       7.37
O       0.74      10.15       5.46
H       1.87      17.12       4.45
H       1.36      13.43       2.25
H       1.16      13.69      10.00
H       1.03      12.38      12.09
H      -1.37       9.42      10.07
H      -1.20      10.71       7.98
H       1.47      12.32       4.38
H       0.40      16.09       6.19
H      -0.20      14.90       8.26
C       0.48      10.14      13.67
C       0.15       8.47      12.26
C       0.06       9.87      12.36
C       1.81      16.33       3.72
C       1.57      14.44       2.60
C       1.41      14.99       3.89
C       0.59      12.76      10.02
C       0.51      12.03      11.20
C      -0.14      10.78      11.23
C      -0.80      10.35      10.06
C      -0.71      11.08       8.88
C       0.04      12.27       8.83
C       0.80      12.27       6.40
C       1.10      12.92       5.21
C       0.99      14.31       5.11
C       0.52      15.01       6.24
C       0.20      14.34       7.41
C       0.33      12.95       7.55
N       0.81       8.99      14.28
N       0.61       7.96      13.41
N       2.19      16.54       2.45
N       2.04      15.37       1.75
