32

H       1.78       8.68       0.35
H       1.62       8.66      -2.15
H       2.05       4.37      -2.13
H       2.05       9.53      -5.89
H       1.62       5.24      -5.87
H       1.78       5.22      -8.37
C       2.10       7.27     -10.02
C       2.10       6.63       2.00
C       2.02       6.54       0.51
C       1.84       7.74      -0.21
C       1.74       7.73      -1.59
C       1.83       6.52      -2.30
C       1.98       5.31      -1.60
C       2.07       5.34      -0.21
C       1.98       8.59      -6.43
C       1.83       7.38      -5.73
C       1.74       6.17      -6.43
C       1.84       6.16      -7.82
C       2.02       7.36      -8.53
C       2.07       8.56      -7.81
N       1.82       6.40      -3.70
N       1.82       7.50      -4.32
N       2.30       4.07       0.49
N       2.30       9.83      -8.52
O       1.16       7.80     -10.70
O       3.06       6.59     -10.48
O       1.16       6.10       2.67
O       3.06       7.31       2.46
O       2.88       4.12       1.58
O       1.90       3.03      -0.06
O       2.89       9.78      -9.61
O       1.90      10.87      -7.97
