28

C       1.56      32.13      22.04
C       1.98      32.10      23.38
C       2.41      33.28      24.01
C       2.38      34.48      23.33
O       1.05      29.98      23.85
O       2.90      30.63      24.98
O       1.05      42.59      18.06
O       2.90      41.95      16.93
H       2.74      39.34      16.86
H       2.67      37.16      18.09
H       1.22      41.35      20.36
H       1.22      31.22      21.54
H       2.74      33.23      25.05
H       2.67      35.41      23.82
F       1.23      39.22      21.85
C       1.98      30.81      24.12
F       1.23      33.35      20.05
C       1.98      41.76      17.79
C       1.98      40.47      18.53
C       2.41      39.29      17.89
C       2.38      38.09      18.58
C       1.98      38.03      19.93
C       1.60      39.24      20.54
C       1.56      40.44      19.86
C       1.98      36.82      20.65
C       1.98      35.76      21.25
C       1.98      34.54      21.97
C       1.60      33.33      21.36
