32

H       9.41       3.97      12.53
H       9.34       3.62      15.01
H      13.55       5.09      12.82
H       9.22       4.85      22.00
H      13.34       3.63      22.10
H      13.37       3.50      19.60
H      13.56       5.00      16.48
H      14.46       5.43      15.08
H       9.13       5.04      18.34
H       8.26       5.37      19.79
C      11.25       4.27      23.67
C      11.53       4.81      11.08
C      11.49       4.57      12.55
C      10.29       4.16      13.16
C      10.25       3.97      14.53
C      11.38       4.24      15.33
C      12.60       4.65      14.71
C      12.63       4.79      13.32
C      11.32       4.16      16.74
C      11.35       4.14      17.97
C      11.33       4.16      19.38
C      10.13       4.55      20.05
C      10.13       4.57      21.46
C      11.28       4.25      22.18
C      12.46       3.88      21.51
C      12.47       3.82      20.13
N      13.71       4.89      15.49
N       9.00       4.85      19.33
O      10.12       4.47      24.23
O      10.42       5.02      10.50
O      12.68       4.80      10.52
O      12.36       4.06      24.27
