30

H      15.57      11.05      17.62
H      13.94      11.70      17.88
H      13.53       6.97      21.20
H      15.42       7.04      19.08
H      17.43       9.41      19.21
H      17.12      10.45      20.62
H      17.39       8.71      20.85
O      11.87       8.82      14.23
H      12.85      10.89      20.73
H      11.74       8.52      19.63
H      15.24      12.08      19.04
C      14.47      10.08      19.20
C      13.42      10.03      20.35
C      15.11       9.56      23.75
C      13.26       8.38      16.03
C      15.47       9.20      20.04
C      14.41       9.17      21.24
C      14.85       7.89      19.45
C      13.86       8.74      18.57
C      13.80       7.85      20.61
C      12.81       8.72      19.77
C      14.76       9.37      22.59
C      13.54       8.55      17.21
C      12.69       8.01      14.78
C      15.72       9.94      24.98
C      14.83      11.29      18.39
C      16.93       9.46      20.19
O      16.64       9.17      25.45
O      15.37      11.05      25.51
O      13.00       6.85      14.31
