57

H       6.14       2.58      22.57
H       6.13       2.58      25.10
H       4.13       9.01      25.11
H       4.16       9.02      22.58
H       7.17       6.18      28.95
H       7.16       6.20      31.47
H       2.95       5.43      31.44
H       3.58       4.27      18.76
H       6.66       7.30      18.64
H       0.75       5.03      28.99
C       5.03       5.85      33.10
C       4.97       5.77      14.53
C       4.79       7.02      20.95
C       5.52       4.60      20.95
C       5.51       4.62      22.43
C       5.15       5.80      23.12
C       4.79       6.98      22.43
C       5.86       3.48      23.14
C       5.86       3.47      24.54
C       5.50       4.62      25.24
C       5.14       5.80      24.55
C       4.76       6.97      25.24
C       4.41       8.12      24.54
C       4.43       8.13      23.14
C       5.49       4.59      26.73
C       4.73       6.98      26.73
C       6.25       6.01      29.51
C       6.25       6.02      30.90
C       5.05       5.82      31.59
C       3.87       5.59      30.88
C       3.86       5.56      29.48
C       5.08       5.78      28.80
C       4.24       4.94      18.21
C       4.23       4.93      16.82
C       5.02       5.78      16.04
C       5.87       6.63      16.75
C       5.96       6.64      18.14
C       5.12       5.80      18.87
C       2.60       5.29      28.74
N       5.15       5.81      20.30
N       5.14       5.80      27.36
N       3.36       3.92      16.17
N       6.73       7.59      16.02
O       3.90       5.74      33.67
O       6.15       6.01      33.68
O       3.84       5.99      14.00
O       6.07       5.54      13.96
O       4.50       8.01      20.30
O       5.83       3.61      20.30
O       5.78       3.60      27.38
O       4.39       7.96      27.38
O       3.85       3.28      15.23
O       2.23       3.77      16.64
O       6.20       8.25      15.12
O       7.91       7.67      16.38
O       2.49       5.11      27.54
O       1.51       5.24      29.57
