16

C       1.77       0.47       2.63
C       2.38       0.27       1.28
C       3.63      -0.35       1.14
C       1.65       0.61       0.13
H       4.20      -0.60       2.03
H       0.67       1.07       0.26
C       4.03      -0.47      -2.63
C       3.41      -0.26      -1.28
C       2.16       0.35      -1.14
C       4.14      -0.61      -0.13
H       1.59       0.60      -2.03
H       5.12      -1.07      -0.26
O       2.47       0.01       3.64
O       0.63       0.98       2.75
O       3.32      -0.01      -3.64
O       5.16      -0.98      -2.75
