16

H       2.07      -2.95      16.36
C       1.97      -5.06      10.78
C       1.97      -5.05      18.31
C       2.02      -6.13      13.11
C       2.03      -3.97      16.00
C       1.99      -5.05      12.26
C       1.99      -5.07      16.84
C       1.96      -4.37      14.64
C       1.96      -5.77      14.48
S       1.91      -3.55      13.13
S       1.90      -6.58      15.99
O       1.04      -4.41      10.21
O       2.90      -5.71      10.19
O       1.04      -5.69      18.90
O       2.90      -4.39      18.90
F       2.05      -7.42      12.70
