70

P       2.34      16.02       1.34
H       5.06      14.65       1.46
H       1.90      15.37      -1.39
H       2.71      16.01       4.34
H       4.69      17.65       0.87
H       0.04      16.10       3.04
H       2.89      13.08       1.86
H       6.27      13.32      -0.22
H       3.13      14.05      -3.08
H       4.22      17.29       5.80
H       6.20      18.91       2.33
H      -1.14      14.45       4.43
H       1.67      11.41       3.19
H       4.58      19.52       6.43
H       7.96      18.84       3.83
H       5.93      21.09       7.77
H       2.38      20.42       5.20
H       3.75      11.97      -3.73
H       7.48      13.43      -2.12
H       4.97      10.92      -5.59
H       8.69      12.35      -4.00
H      -2.52      12.76       4.34
H       1.11      10.55       5.18
H      -3.81      11.07       5.60
H      -0.20       8.88       6.41
C       3.37      15.08       0.17
C       3.58      16.73       2.50
C       1.56      14.71       2.35
C       4.62      14.51       0.47
C       2.84      14.90      -1.13
C       3.47      16.64       3.89
C       4.59      17.55       1.95
C       0.41      15.07       3.08
C       2.01      13.38       2.42
C       5.31      13.77      -0.49
C       3.53      14.15      -2.07
C       4.32      17.38       4.72
C       5.45      18.26       2.78
C      -0.26      14.13       3.85
C       1.32      12.44       3.18
C       4.78      13.57      -1.77
C       5.32      18.21       4.18
C       0.16      12.79       3.90
C       6.17      19.06       5.04
C       5.62      19.68       6.17
C       7.51      19.33       4.70
C       6.38      20.58       6.92
C       8.28      20.20       5.47
C       7.70      20.85       6.57
C       8.47      21.88       7.30
C       5.52      12.82      -2.81
C       4.84      12.08      -3.79
C       6.93      12.87      -2.87
C       5.52      11.47      -4.84
C       7.61      12.27      -3.92
C       6.91      11.59      -4.93
C       7.65      11.09      -6.11
C      -0.60      11.79       4.66
C      -2.00      11.92       4.81
C       0.03      10.68       5.25
C      -2.73      10.97       5.50
C      -0.70       9.73       5.95
C      -2.09       9.86       6.07
C      -2.91       8.85       6.76
O       2.80      21.95       7.26
O       7.82      22.76       8.02
O       8.91      11.08      -6.15
O       6.98      10.69      -7.15
O      -2.33       7.91       7.46
O      -4.17       8.87       6.67
