16

C       4.42       9.81       3.38
O       3.28      11.23       1.29
H       4.98      10.62       2.92
C       4.96       9.10       4.44
O       4.04       6.43       6.74
H       5.95       9.34       4.83
C       4.22       8.06       5.04
O       5.95       7.63       6.61
C       2.95       7.74       4.55
H       2.38       6.93       5.01
C       3.13       9.50       2.90
C       2.40       8.45       3.48
H       1.41       8.22       3.10
C       2.54      10.30       1.78
C       4.79       7.32       6.21
O       1.36      10.03       1.39
