20

H       2.78      14.23       3.29
H       1.92      16.06       4.80
H      -1.50      16.35       2.17
H      -0.45      14.62       0.74
H      -1.39      18.53       2.96
H      -2.18      20.29       4.52
H      -0.53      18.35       7.78
H       0.33      16.51       6.38
C       1.82      14.72       3.11
C       1.33      15.70       3.95
C       0.10      16.31       3.65
C      -0.55      15.92       2.47
C       0.02      14.93       1.67
C      -0.45      17.35       4.53
C      -1.19      18.44       4.03
C      -1.62      19.43       4.89
C      -0.71      18.35       6.71
C      -0.23      17.32       5.92
N       1.17      14.31       2.00
N      -1.37      19.42       6.21
