38

C       1.02       0.61       9.37
H       5.91       1.08      16.23
H       4.55       3.20      11.29
H       8.08      -0.87      20.95
N       6.23       0.08      20.76
N       6.83       1.53      16.03
H       9.01       0.10      18.86
H       5.22       2.10      18.28
N       4.79       2.32      11.76
H       4.48       1.16      20.46
N       0.52       1.84       9.14
O       8.82       2.19      17.00
H       4.89       1.69      14.33
H       9.15       2.21      14.75
O       4.17       0.14      12.12
H       9.29       2.86      12.35
H       7.25       2.89      10.93
H       0.66       3.88       9.50
H       2.65       3.69      10.96
H       2.49      -0.60      10.37
H       0.52      -0.21       8.85
C       7.48      -0.19      20.34
C       8.00       0.34      19.17
C       7.17       1.14      18.37
C       5.89       1.45      18.84
C       5.46       0.92      20.05
C       7.69       1.66      17.07
C       5.86       1.94      13.90
C       7.01       1.91      14.69
C       8.26       2.24      14.14
C       8.33       2.61      12.79
C       7.19       2.64      11.99
C       5.96       2.30      12.55
C       3.95       1.26      11.63
C       1.10       2.91       9.72
C       2.22       2.79      10.54
C       2.74       1.51      10.78
C       2.11       0.41      10.19
