22

O      25.16      21.07      13.15
O      25.61      19.13      14.25
H      28.57      23.23      17.68
H      25.06      18.78      13.51
O      26.41      24.54      18.51
O      24.93      22.83      18.69
C      24.36      21.95      16.07
H      24.56      23.42      19.38
C      26.60      22.67      17.02
C      27.99      22.65      16.96
C      28.67      21.91      15.98
C      27.93      21.15      15.06
C      26.53      21.16      15.11
C      25.86      21.92      16.09
C      30.16      21.97      16.00
C      25.70      20.47      14.06
C      25.98      23.47      18.12
I      28.88      19.96      13.60
O      23.78      20.81      16.12
O      30.71      21.79      17.14
O      30.75      22.24      14.91
O      23.80      23.09      15.99
