26

H       5.18       1.14       5.99
H       3.31       4.69       4.50
H       4.86       1.94       8.33
H       3.02       5.54       6.83
H       5.59       3.37       9.85
H       1.87       5.29       8.79
H       5.17       3.97      12.24
H       1.55       5.98      11.12
C       4.44       2.34       3.72
C       4.26       2.86       5.11
C       4.71       2.10       6.20
C       3.64       4.10       5.35
C       4.54       2.56       7.50
C       3.48       4.56       6.65
C       3.92       3.80       7.75
C       3.74       4.25       9.14
C       4.68       3.91      10.13
C       2.62       5.01       9.53
C       4.47       4.25      11.46
C       2.42       5.38      10.86
C       3.33       4.97      11.85
C       3.09       5.23      13.30
O       4.00       3.01       2.73
O       5.05       1.22       3.59
O       2.11       5.98      13.66
O       3.84       4.67      14.16
