34

C      14.95       2.77       9.16
C      15.03       2.62       6.91
C      14.44       4.57       7.89
C      12.69      10.18       6.16
C      13.23       8.45       7.50
C      12.69      10.45       8.41
C      14.79       0.42      12.46
C      12.62      12.71      11.79
C      12.76      12.46       2.82
C      15.03       0.36       3.53
C      12.57      10.81       4.89
C      12.58      11.50       3.89
C      12.53      12.04      10.51
C      12.57      11.30       9.55
C      15.17       1.81       5.74
C      15.20       1.07       4.77
C      15.03       2.09      10.41
C      15.00       1.35      11.37
C      13.65       7.09       7.65
C      14.02       5.93       7.77
N      15.23       2.01       8.09
N      14.64       3.90       6.74
N      14.57       4.06       9.13
N      13.06       8.89       6.24
N      13.08       9.17       8.62
N      12.46      11.01       7.21
O      15.72       0.24      13.30
O      12.04      13.83      11.97
O      13.31      12.05      12.64
O      13.63      -0.13      12.45
O      11.82      12.66       2.00
O      15.58      -0.77       3.35
O      14.26       0.98       2.71
O      13.90      13.03       2.85
