28

H       0.21      14.89      22.79
H      -0.20      16.60      21.02
H       4.29      14.49      21.49
H      -1.10      21.66      16.22
H       2.89      20.74      14.87
H       3.09      19.00      16.65
C       0.78      22.31      14.34
C       2.48      13.63      23.39
C       2.28      14.61      22.27
C       1.01      15.19      22.11
C       0.78      16.13      21.13
C       1.81      16.51      20.24
C       3.07      15.88      20.37
C       3.31      14.95      21.39
C       1.56      17.49      19.26
C       1.30      18.37      18.45
C       1.13      19.35      17.46
C      -0.05      20.13      17.33
C      -0.18      21.08      16.31
C       0.88      21.30      15.43
C       2.07      20.55      15.56
C       2.18      19.59      16.55
Cl       4.33      16.28      19.26
Cl      -1.34      19.90      18.45
O      -0.37      22.77      14.05
O       1.87      22.63      13.76
O       1.42      13.32      24.02
O       3.65      13.20      23.64
