20

C      12.87      -0.42      28.31
C      14.91       0.66      26.55
C      13.99       0.25      28.80
C      13.76      -0.02      26.08
C      14.97       0.77      27.94
C      12.78      -0.55      26.92
C      14.70       0.72      30.05
C      15.80       1.31      29.09
H      11.93      -1.06      26.47
H      14.15       1.46      30.64
H      15.04      -0.08      30.73
H      16.80       0.86      29.18
H      15.91       2.40      29.10
C      15.97       1.24      25.68
O      16.91       1.85      26.28
O      15.85       1.08      24.42
C      11.81      -0.98      29.20
O      11.99      -0.82      30.46
O      10.83      -1.57      28.64
F      13.56      -0.20      24.75
