20

H       8.81       1.90       6.95
C       7.64       3.93       8.03
C       8.25      -2.28       6.90
C       8.37      -0.77       6.87
C       8.09       0.09       7.88
C       7.49       2.49       8.40
C       8.16       1.52       7.74
N       8.80      -0.23       5.57
N       7.76      -0.53       9.19
N       6.55       2.21       9.50
O       6.83       4.74       8.57
O       9.21      -2.88       7.47
O       8.55       4.19       7.17
O       7.25      -2.74       6.29
O       7.93      -0.12       4.70
O      10.00       0.03       5.46
O       8.15       0.09      10.19
O       7.19      -1.62       9.19
O       6.78       2.76      10.58
O       5.61       1.44       9.24
