26

O       9.61       7.73       9.71
O       9.47       5.46       9.74
O      10.57       7.63      20.96
O       9.30       5.75      21.04
H       9.65       8.75      11.93
H       9.68       8.79      14.43
H       9.42       4.48      11.97
H       9.48       4.49      14.47
H       8.22       5.06      16.38
H       8.39       5.07      18.87
H      11.22       8.29      18.68
H      11.10       8.25      16.19
C       9.54       6.60      10.31
C       9.64       7.84      13.90
C       9.61       7.83      12.51
C       9.54       6.62      11.81
C       9.47       5.42      12.53
C       9.50       5.43      13.92
C       9.59       6.64      14.63
C       8.90       5.76      16.88
C       8.98       5.76      18.27
C       9.81       6.68      18.92
C      10.57       7.59      18.16
C      10.49       7.57      16.77
C       9.90       6.69      20.41
C       9.65       6.66      16.11
