22

C       2.42       9.18      18.06
H       1.55       8.43      21.23
C       0.20      10.72      18.37
C       1.02      10.86      17.24
C       1.60       9.04      19.19
C       0.74      11.86      16.16
C       1.89       8.04      20.26
H       4.03       8.43      16.84
N       2.12      10.08      17.11
H      -1.40      11.47      19.59
N       0.51       9.82      19.32
H       3.44       7.27      18.06
H      -0.81      12.62      18.37
H       4.45       8.65      18.54
C       3.64       8.34      17.86
H      -1.82      11.25      17.88
C      -1.02      11.56      18.56
H       1.28      12.80      16.37
H       1.35       7.10      20.05
H      -0.33      12.08      16.09
H       2.96       7.82      20.34
H       1.08      11.47      15.19
