44

H       1.84      12.96      12.54
H      -1.84      10.75      12.54
H       1.11      13.69       6.72
H      -1.11      10.01       6.72
H       2.96      13.49      14.51
H       1.86      14.01      15.81
H       2.69      12.45      15.93
H      -2.96      10.21      14.51
H      -1.86       9.70      15.81
H      -2.68      11.25      15.93
H       1.64      14.81       4.75
H       2.16      13.71       3.44
H       0.60      14.54       3.33
H      -1.64       8.89       4.75
H      -2.15       9.99       3.45
H      -0.60       9.17       3.33
C       0.00      11.85      15.18
C      -1.04      11.23      13.10
C       0.63      12.89       6.16
C      -0.63      10.81       6.16
C       0.00      11.85      12.39
C       0.00      11.85       6.86
C       0.00      11.85       4.08
C       2.20      13.14      15.22
C      -2.20      10.56      15.22
C       1.29      14.05       4.04
C      -1.29       9.65       4.04
C       0.00      11.85       8.33
C       0.00      11.85      10.92
C       0.00      11.85      16.68
C       0.00      11.85       2.58
C       1.06      12.49      14.49
C      -1.06      11.21      14.49
C       0.64      12.91       4.76
C      -0.64      10.79       4.76
C       1.04      12.48      13.10
N      -0.84      11.00      10.29
N       0.84      12.70      10.29
N      -0.85      11.01       8.97
N       0.85      12.69       8.97
O       0.02      10.71      17.26
O      -0.02      12.99      17.26
O      -1.14      11.87       2.00
O       1.14      11.83       1.99
