35

O       8.09       7.94       9.15
O       9.83       6.15       9.27
P       8.46       6.60       9.77
H       9.84       7.67      13.07
O      11.86      10.39      11.62
H       8.41       5.87      12.11
O      11.28       9.19      13.45
H       7.83       7.55      11.94
H      10.91       8.21      10.43
H       9.50       9.11      11.03
H      11.91       6.79      12.49
H      11.19       5.99      11.06
H       9.92       3.97      11.25
H       9.39       1.92      12.52
H       9.88       1.80      14.95
H      10.69       2.86      17.01
H      11.61       4.83      18.19
H      12.13       6.92      16.94
H      11.69       7.08      14.54
C       8.59       6.82      11.61
C      11.25       9.42      12.23
C      10.38       8.54      11.33
C      11.02       6.27      12.11
C      10.67       5.07      12.94
C      10.11       3.96      12.32
C       9.81       2.78      13.04
C      10.08       2.72      14.39
C      10.64       3.83      15.07
C      10.91       3.78      16.46
C      11.43       4.88      17.12
C      11.72       6.06      16.41
C      11.47       6.15      15.05
C      10.93       5.04      14.34
N       9.92       7.33      12.09
O       7.38       5.52       9.61
