28

H       1.92       2.37      12.17
H       2.14       2.02      14.64
H      -2.16       2.13      14.98
H       3.28       1.63      18.28
H      -1.02       1.74      18.62
H      -0.80       1.40      21.09
C       1.36       1.05      22.56
C      -0.24       2.72      10.70
C      -0.21       2.46      12.17
C       1.04       2.31      12.80
C       1.16       2.12      14.17
C      -0.00       2.07      14.96
C      -1.26       2.19      14.36
C      -1.35       2.38      12.99
C       2.38       1.58      18.90
C       1.12       1.69      18.30
C      -0.04       1.64      19.09
C       0.08       1.45      20.46
C       1.33       1.30      21.09
C       2.47       1.38      20.27
N      -0.01       1.90      16.36
N       1.13       1.87      16.90
O       0.23       1.09      23.15
O      -1.36       2.99      10.15
O       0.89       2.67      10.12
O       2.48       0.78      23.11
F      -2.60       2.49      12.47
F       3.72       1.27      20.79
