39

H      17.19       8.76       5.90
C      17.72       7.80       5.98
H      20.99       6.79       5.43
C      20.10       6.51       7.41
H      18.70       9.59       8.26
C      17.70       7.26       7.42
C      19.50       8.94       7.89
H      20.39       9.16       8.50
H      20.85       9.25       6.19
C      19.77       9.17       6.39
H      19.31      10.11       6.05
C      19.26       8.58       2.95
H      19.78       5.49       7.66
H      17.47       6.19       7.43
C      19.07       7.47       8.11
H      16.92       7.75       8.02
C      19.98       6.72       5.88
H      17.22       7.11       5.28
C      19.19       8.00       5.55
H      23.91       5.57       8.87
H      23.82       7.23       9.47
H      23.61       5.87      10.59
H      21.40       6.91      10.03
H      21.47       5.24       9.51
H      22.17       6.06       7.19
H      21.90       7.70       7.71
O      20.28       9.26       0.97
O      17.67       5.83      12.46
O      18.01       9.31       1.15
H      19.48       5.86       5.40
C      18.82       6.16      11.95
O      19.95       5.90      12.44
C      21.56       6.67       7.88
C      21.89       6.24       9.31
C      23.39       6.23       9.58
C      19.26       8.31       4.13
C      18.93       7.15       9.51
C      18.79       6.82      10.68
C      19.17       9.07       1.60
