22

H      10.24       8.85       7.07
H      11.92      10.14       8.33
H      10.03      13.82       7.13
H      11.80      12.64       8.37
H       6.27      12.45       4.48
H       6.30       9.95       4.57
C       8.16       8.37       5.47
C       8.08      14.15       5.36
C       8.15       9.85       5.62
C       9.18      10.58       6.31
C       7.10      10.53       5.03
C      10.21       9.93       7.06
C      11.14      10.66       7.77
C       8.10      12.67       5.57
C       7.07      11.93       5.00
C       9.14      12.02       6.30
C      10.10      12.73       7.08
C      11.08      12.07       7.78
O       7.03       7.79       5.42
O       6.94      14.72       5.34
O       9.21      14.73       5.20
O       9.29       7.79       5.34
