30

C       1.98      -7.16      14.68
C       1.98      -7.44      27.46
F       1.95      -9.87      25.95
F       1.98     -10.01      23.38
F       2.00      -5.14      25.79
F       1.97      -5.16      23.23
F       1.97      -9.44      18.91
F       2.00      -9.46      16.35
F       1.98      -4.58      18.76
F       1.95      -4.72      16.19
F       1.98      -9.05      21.22
F       1.98      -5.55      20.92
C       1.97      -7.50      25.96
C       2.00      -6.35      25.19
C       1.99      -6.38      23.80
C       1.98      -7.59      23.05
C       1.97      -8.76      23.88
C       1.95      -8.71      25.27
C       1.98      -7.75      21.59
C       1.98      -6.85      20.55
C       1.97      -5.84      18.26
C       1.98      -7.01      19.09
C       1.99      -8.22      18.34
C       2.00      -8.25      16.95
C       1.97      -7.09      16.18
C       1.95      -5.89      16.87
O       1.05      -6.56      14.07
O       2.93      -7.82      14.15
O       1.05      -8.04      28.07
O       2.93      -6.77      27.99
