48

C       5.05      17.18      10.45
H       5.52      18.98       3.23
C       7.39      15.57       5.89
H       5.50      21.55       6.70
C       4.45      17.76       9.32
H       5.32      20.99       1.76
O       5.37      23.41       1.27
H       5.29      23.54       5.21
C       6.62      16.73       6.37
C       5.15      17.78       8.02
O       3.17      17.39      14.14
C       9.42      12.14       4.26
H      10.24      14.75       4.16
C       6.49      17.87       5.56
O       5.38      24.71       3.12
C       2.47      17.80      13.16
H       7.15      12.16       5.64
C       5.94      16.70       7.60
C       5.03      18.89       7.18
C       8.75      13.34       4.83
O      10.62      12.23       3.86
H       1.55      18.83      10.82
H       4.88      16.76      12.57
C       5.69      18.95       5.94
C       3.15      17.80      11.83
O       1.26      18.19      13.20
O       8.71      11.07       4.21
C       9.29      14.62       4.68
H       9.03      16.72       5.07
C       5.53      20.13       5.07
C       7.55      13.17       5.53
H       5.94      14.12       6.59
C       5.47      19.98       3.67
H       2.69      18.80       8.60
C       5.43      21.42       5.62
C       2.54      18.38      10.71
H       6.04      16.73      10.36
C       4.41      17.20      11.69
C       5.35      21.09       2.84
C       3.18      18.36       9.47
C       8.61      15.72       5.20
H       7.01      17.90       4.60
C       5.31      22.53       4.79
C       6.89      14.27       6.07
H       6.03      15.82       8.23
C       5.28      22.37       3.40
H       4.40      19.73       7.49
C       5.33      23.58       2.53
