26

C      14.84      11.40       9.54
C      14.85       9.86       9.59
H      17.38       9.54       7.24
C      16.78      11.53       7.97
C      16.32      13.42       9.55
C      17.18      11.22      10.42
O      15.97       7.23      10.11
O      16.09       7.21       7.85
O      15.21      14.04       9.62
O      17.48      14.00       9.60
H      14.24      11.76       8.70
H      14.39      11.81      10.45
H      14.70       9.48      10.61
H      14.03       9.44       8.98
H      16.28      12.14       7.21
H      15.66       9.88       7.03
H      18.16      11.70      10.44
H      16.74      11.35      11.42
H      17.21       9.10      10.97
H      18.29       9.51       9.62
H      17.86      11.75       7.90
C      16.28      11.92       9.39
C      16.20       9.33       9.06
C      16.51      10.02       7.72
C      17.30       9.72      10.07
C      16.09       7.82       8.99
