19

C      13.55       5.17      11.09
H      12.80      10.78      12.92
S      12.89       7.73      14.19
S      13.30       8.49      10.10
H      11.90       5.61      10.18
O      12.84       3.88      13.60
O      13.10       5.15      15.48
C      13.01       4.98      14.22
C      13.06      11.25      10.11
O      12.91      12.35      10.74
O      13.18      11.10       8.84
C      13.23       6.30      12.02
C      12.94       9.91      12.28
C      13.08       6.20      13.40
C      13.08      10.02      10.91
O      12.66       5.00      10.06
O      14.55       4.49      11.16
C      12.99       8.56      12.69
C      13.17       7.66      11.61
