44

H       6.42       4.31       1.80
H       4.54       2.64       1.90
H       1.81       5.92       1.18
H       3.79       7.43       1.06
H       1.05       0.72       4.58
N      -3.58      -1.17       1.51
O       2.46       2.57       3.66
N      -6.93      -3.72       1.40
H      -0.64       2.77      -1.63
O       1.43       3.87      -0.64
O      -3.06      -1.82       3.66
O      -4.09      -0.53      -0.64
H      -5.64      -5.29       1.80
H      -3.59      -3.83       1.90
C      -5.70      -4.21       1.66
C      -4.57      -3.40       1.72
H      -0.93      -0.86       4.58
C      -4.73      -2.03       1.52
C      -6.00      -1.51       1.31
C      -2.76      -1.16       2.67
C      -1.56      -0.29       2.61
C      -0.71      -0.23       3.72
C      -1.31       0.51       1.47
C      -2.16       0.46       0.34
H      -6.17      -0.44       1.18
C      -3.34      -0.43       0.33
C      -7.07      -2.39       1.24
H      -8.09      -2.03       1.06
C      -1.90       1.26      -0.76
H      -2.56       1.24      -1.63
C       5.38       4.62       1.66
C       4.34       3.69       1.72
C       3.04       4.15       1.52
C       2.81       5.51       1.31
C       3.92       6.36       1.24
C       1.75       2.43       2.67
C       0.63       1.46       2.61
C       0.38       0.65       3.72
C      -0.20       1.39       1.47
C       0.04       2.21       0.34
C      -0.80       2.13      -0.76
C       1.16       3.16       0.33
N       5.18       5.92       1.40
N       1.94       3.23       1.51
