33

H       4.99      15.02       3.18
H       3.37      18.97       3.74
H       3.51      18.73       6.20
H       3.96      18.04       8.67
H       4.73      16.98      10.82
H       6.15      13.54       8.70
H       3.48      13.50       6.17
H       4.88      12.48       6.56
H       4.53      12.93       4.87
H       7.48      15.12       5.78
H       6.90      13.91       4.61
H       7.25      13.43       6.29
O       4.30      16.17       1.08
O       3.87      18.34       1.34
O       5.95      15.29      12.22
O       6.19      13.34      11.13
C       4.69      15.82       3.86
C       4.17      17.01       3.32
C       3.75      18.05       4.17
C       3.85      17.92       5.55
C       4.46      17.07       8.67
C       4.88      16.48       9.86
C       5.49      15.22       9.87
C       5.68      14.52       8.66
C       5.29      15.11       7.47
C       4.68      16.38       7.47
C       4.39      16.75       6.08
C       4.81      15.70       5.24
C       5.39      14.55       6.05
C       4.52      13.29       5.91
C       6.84      14.24       5.66
C       4.10      17.19       1.84
C       5.91      14.59      11.16
