48

C       1.91      16.70      13.73
O       2.37      15.67      14.53
C       2.70      18.82      19.36
C       0.83      11.88      20.03
O       2.93      12.88      19.47
O       1.48      18.74      19.40
C       1.42      10.97      20.91
C       0.61      10.02      21.53
O       1.47      17.75      14.16
C      -1.28      10.78      20.43
C      -0.55      11.78      19.80
C       3.49      19.85      20.07
C       2.79      20.79      20.83
C       3.49      21.75      21.53
C       5.52      20.96      20.73
C       4.89      19.94      20.02
C       2.02      16.32      12.30
C       1.37      17.13      11.35
C       1.41      16.76      10.02
C       2.74      14.92      10.49
C       2.71      15.19      11.85
H       2.31      15.92      19.80
H       3.33      17.73      16.03
H       1.31      13.91      16.09
H       2.49      10.98      21.12
H       1.06       9.32      22.23
N      -0.71       9.90      21.29
H       0.87      17.33       9.26
N       4.84      21.86      21.48
H      -2.35      10.65      20.26
H      -1.06      12.47      19.12
N       2.08      15.67       9.58
C       1.72      14.82      18.01
H       1.70      20.77      20.88
C       2.27      15.89      18.71
H       2.95      22.47      22.14
C       2.85      16.92      17.96
H       6.60      21.10      20.71
C       2.88      16.90      16.57
H       5.48      19.24      19.45
C       1.72      12.88      19.39
C       2.33      15.81      15.92
O       1.00      13.82      18.68
H       0.80      18.00      11.66
C       1.74      14.75      16.62
H       3.31      14.07      10.10
H       3.25      14.55      12.54
O       3.49      17.98      18.61
