24

H      15.05       5.46      11.11
H      17.55       5.59      11.14
H      19.49       7.91       8.84
C      15.59       6.09      10.41
C      16.98       6.16      10.40
H      19.45       5.15      10.22
C      17.63       6.97       9.45
H      21.50       3.94      10.22
C      19.08       7.04       9.35
H      24.00       3.91      10.08
C      19.89       6.05       9.79
H      24.12       7.92       9.08
C      21.34       6.04       9.71
H      21.65       8.15       9.20
H      17.28       8.41       7.87
C      22.04       4.85       9.97
H      14.77       8.15       7.99
C      23.43       4.82       9.89
C      23.49       7.07       9.33
C      22.11       7.18       9.39
C      16.82       7.73       8.59
C      15.44       7.60       8.65
N      14.83       6.79       9.54
N      24.14       5.92       9.57
