40

C       5.45      -3.60      17.61
C       7.63      -2.29      13.09
C       2.10      -5.14      15.49
C       3.91      -2.97      11.15
O      -1.45      -5.72      11.99
O      -0.59      -4.92      10.04
H       9.56      -1.63      14.72
H       7.82      -2.90      18.45
H       1.63      -3.91      10.26
H       0.05      -5.55      13.91
O      11.00      -1.30      16.68
O      10.11      -2.06      18.64
H       4.21      -2.49      16.63
H       6.83      -4.04      12.90
H       3.90      -5.78      15.20
H       4.11      -1.70      12.59
C      -0.54      -5.17      11.29
C      10.08      -1.83      17.38
O       4.20      -3.10      17.40
O       5.66      -4.39      18.51
O       7.18      -3.33      12.33
O       8.09      -1.29      12.58
O       3.24      -5.74      15.92
O       1.15      -4.99      16.24
O       4.45      -1.84      11.68
O       4.19      -3.33      10.03
C       8.83      -2.23      16.66
C       8.73      -2.06      15.28
C       7.59      -2.46      14.59
C       6.47      -2.97      15.31
C       6.56      -3.09      16.73
C       7.75      -2.76      17.38
C       5.28      -3.34      14.63
C       4.26      -3.66      14.04
C       3.07      -4.03      13.36
C       2.89      -3.71      11.99
C       1.74      -4.12      11.32
C       0.71      -4.78      12.01
C       0.86      -5.06      13.37
C       2.03      -4.74      14.04
