44

H       5.32      17.09       3.59
H       5.07      17.71       5.91
H       0.33      16.33       5.53
H       1.73      16.46       3.47
H       6.74      17.79       2.23
H       8.26      17.62       0.34
H       4.93      16.79      -2.31
H       3.41      16.94      -0.41
H       6.39      17.60      -3.65
H       6.70      16.95      -5.97
H      11.44      18.31      -5.47
H       9.99      18.18      -3.45
C       3.91      17.44       2.13
C       3.49      17.11       4.55
C       4.03      17.40       5.81
C       3.25      17.36       6.98
C       1.87      16.98       6.86
C       1.37      16.65       5.58
C       2.14      16.71       4.44
C       0.95      16.88       8.00
C       4.94      17.36       1.05
C       6.32      17.55       1.25
C       7.19      17.47       0.17
C       6.72      17.21      -1.12
C       5.34      17.03      -1.32
C       4.47      17.10      -0.24
C       7.76      17.12      -2.19
C       8.25      17.54      -4.58
C       7.74      17.25      -5.85
C       8.55      17.30      -7.00
C       9.93      17.67      -6.84
C      10.40      17.99      -5.55
C       9.60      17.92      -4.43
C      10.87      17.78      -7.97
N       4.33      17.18       3.42
N       7.38      17.47      -3.47
O      -0.25      16.47       7.85
O       1.39      17.22       9.17
O       3.84      17.68       8.15
O      12.07      18.18      -7.79
O      10.45      17.47      -9.15
O       7.98      16.98      -8.18
O       2.73      17.70       1.87
O       8.92      16.79      -1.93
