24

O       2.03       6.23       9.52
O       2.67       8.29       9.09
H       8.45       6.19      10.30
H       7.61       5.89       8.81
H       7.54       6.21      13.46
H       8.06       5.30      12.11
C       5.26       7.19      13.91
C       5.20       6.10       8.18
C       4.18       7.34      11.63
C       4.10       6.92      10.31
C       5.23       6.38       9.64
C       5.32       7.07      12.43
C       6.43       6.25      10.38
C       6.44       6.49      11.81
N       3.09       8.17      12.17
N       2.83       7.16       9.57
N       7.61       5.85       9.83
N       7.60       6.14      12.45
O       6.37       7.08      14.55
O       6.33       5.94       7.59
O       4.14       7.36      14.48
O       4.08       6.04       7.58
O       3.41       9.28      12.64
O       1.93       7.74      12.10
