12

O      10.83      12.62       0.72
C      11.70      12.75       1.62
F      13.96      12.09       2.07
C      13.23       9.28       2.88
F      11.00      10.17       2.53
O      14.41       9.55       3.23
C      12.72      11.59       1.76
O      12.71       8.17       2.59
F      12.87      10.91       0.56
O      11.86      13.67       2.48
C      12.30      10.53       2.82
F      12.27      11.13       4.06
