32

S      11.48      10.61       5.63
S      10.79      13.03       8.44
H      14.08      10.08       7.40
H      15.76      11.99       6.17
H      12.99      14.82       6.87
O      12.58      14.25       1.35
H      10.13      10.75       7.37
O      14.84      14.03       1.42
H       9.67      12.78       6.66
O      12.58      10.07      12.67
O      11.26      11.10       4.31
O      11.88       9.26       5.90
O      10.05      10.88       6.38
H      15.24      13.80       8.32
C      13.70      10.53      12.20
C      12.63      11.69       6.51
O      10.27      11.76       8.90
O      10.93      14.14       9.34
C      13.86      11.14       7.28
O       9.90      13.56       7.22
C      13.55      13.12       4.43
C      13.59      11.70       9.83
O      14.84      10.37      12.70
C      13.69      13.92       1.91
C      14.50      13.21       7.78
C      14.79      12.20       6.62
C      13.59      13.42       3.26
C      13.61      11.24      10.95
C      13.26      13.77       7.00
C      13.56      12.77       5.80
C      13.58      12.13       8.48
C      12.34      12.71       7.67
