28

C       6.58       9.49      12.23
C       6.68      11.99      15.42
C       6.62      10.36      13.35
C       6.65      11.12      14.30
O       5.36       6.62       8.31
O       7.91      14.87      19.33
H       4.53       9.95      11.72
H       8.74      11.53      15.92
O       7.63       6.54       8.33
O       5.64      14.95      19.32
H       4.48       8.41       9.75
H       8.79      13.08      17.89
H       8.58       7.34      10.47
H       4.69      14.15      17.18
H       8.63       8.82      12.49
H       4.64      12.67      15.16
C       6.51       6.91       8.79
C       6.76      14.58      18.85
C       5.41       9.37      11.45
C       7.86      12.12      16.19
C       5.38       8.52      10.36
C       7.89      12.97      17.29
C       6.53       7.80       9.99
C       6.74      13.69      17.65
C       7.70       7.91      10.76
C       5.57      13.57      16.89
C       7.73       8.74      11.88
C       5.54      12.75      15.77
