32

H      -3.26      11.57       9.06
H       3.13      13.97       7.78
H       6.38      12.13       7.50
H      -2.74      15.17       8.31
H      -1.56      10.52       9.13
H       1.45      14.93       7.52
H       5.03      10.13       7.73
H       0.45       9.20       8.82
C       2.86       8.60       7.90
C      -0.62      15.18       7.87
C       4.13      10.73       7.85
C       4.20      12.13       7.78
C       3.03      12.89       7.86
C       1.78      12.28       8.08
C       1.72      10.86       8.22
C       0.55      13.05       8.14
C      -0.68      12.42       8.51
C      -0.66      11.02       8.78
C       0.48      10.27       8.62
C       0.54      14.42       7.83
C      -1.82      14.58       8.27
C      -0.53      16.64       7.54
C       2.91      10.09       8.03
C      -3.17      12.68       9.02
C       5.50      12.81       7.59
C      -1.87      13.23       8.59
O       3.83       7.92       8.37
O       5.64      14.03       7.53
O       1.84       8.14       7.28
O       0.63      17.12       7.36
O      -1.62      17.29       7.49
O      -4.14      13.37       9.32
