24

O       4.88      11.84      14.64
O       2.97      11.21      15.73
H       6.63      15.02      18.43
H       2.33      14.73      18.70
H       4.46      17.57      21.16
O      -0.49      17.97      22.53
O      -1.19      17.69      20.38
O       9.80      17.42      22.07
O       9.53      19.11      20.57
C       5.68      16.35      19.85
C       5.69      15.35      18.87
C       4.48      14.75      18.46
C       3.26      15.19      19.02
C       3.25      16.20      19.99
C       4.46      16.78      20.40
C       4.04      11.88      15.62
C      -0.33      17.59      21.32
C       9.17      18.02      21.17
C       2.02      16.65      20.53
C       0.94      17.03      20.95
C       7.92      17.45      20.70
C       6.90      16.94      20.29
C       4.45      13.72      17.48
C       4.32      12.83      16.66
