48

H       8.78       9.73       3.02
H      14.14       4.64      12.32
H      10.75       7.12       4.28
H       9.09       6.80       4.79
H       9.39       7.50       3.19
H      11.80       6.97      11.07
H      13.20       6.78      12.16
H      13.40       7.50      10.54
H      10.51       9.87       8.67
H      11.29      11.36       8.10
H       9.58      11.38       8.59
H       9.26      12.48       6.30
H      12.85       4.05       6.61
H      12.69       2.34       7.09
H      11.32       3.46       7.25
H      12.69       8.81       6.50
H      10.07       5.33       8.82
H      13.68       1.75       9.15
H       8.55      12.03       3.96
H      14.51       2.35      11.42
C       8.49       7.04       7.57
C      14.28       7.10       7.72
C      12.78       7.06       7.72
C       9.10       9.94       4.04
C      13.78       4.37      11.32
C       9.63       8.90       4.81
C      13.13       5.35      10.55
C      10.06       9.17       6.13
C      12.70       5.01       9.25
C       9.93      10.47       6.67
C      12.88       3.71       8.74
C       9.37      11.48       5.88
C       9.99       7.08       7.59
C      13.53       2.76       9.54
C       8.97      11.23       4.57
C      13.99       3.09      10.81
C      12.10       8.05       7.00
C      10.66       6.09       8.31
C       9.72       7.51       4.23
C      12.87       6.72      11.11
C      10.35      10.78       8.08
C      12.05       6.06       8.40
C      12.41       3.37       7.35
C      10.71       8.09       6.93
O       7.96       5.89       7.42
O      14.82       8.25       7.64
O       7.88       8.14       7.74
O      14.90       5.99       7.79
