54

C       4.43      20.28       7.12
C       3.93      25.41       7.76
C       4.04      20.53       8.44
C       4.67      24.32       8.22
H       4.30      26.05       6.97
C       2.75      20.19       8.87
C       4.15      23.54       9.25
H       5.65      24.09       7.80
N       6.68      21.52      10.68
C       2.89      23.79       9.80
H       2.51      23.15      10.59
N       6.04      20.57       9.93
C       2.16      24.88       9.33
H       1.18      25.11       9.74
N       4.97      22.49       9.76
C       6.45      23.98      11.16
H       7.28      23.82      11.86
N      -1.15      18.02       9.24
C       6.06      22.69      10.57
H       6.74      24.69      10.37
N       0.22      18.08       9.11
C       5.01      21.16       9.37
H       5.61      24.43      11.71
N      -0.65      19.83       8.08
C      -0.79      24.59       4.92
H      -1.70      22.17       4.26
C      -0.78      23.36       5.79
O       2.55      27.59       6.94
H      -1.66      20.06       5.64
C      -1.30      22.17       5.28
O       0.73      27.05       8.19
H       0.16      22.23       8.88
C      -1.28      21.00       6.04
O      -0.21      25.64       5.41
H       0.13      24.33       7.48
C      -0.74      21.04       7.33
O      -1.37      24.55       3.80
H      -3.69      18.81       9.21
C      -0.24      22.23       7.87
H      -3.20      20.50       8.89
C      -0.26      23.39       7.09
H      -3.50      19.38       7.54
C      -3.10      19.46       8.56
H       1.53      18.93       5.95
C      -1.67      19.07       8.62
H       3.83      19.54       5.19
C       0.51      19.17       8.42
H       5.45      20.50       6.80
C       1.85      19.60       7.98
H       2.43      20.39       9.90
C       2.24      19.38       6.65
C       1.92      26.87       7.78
C       3.52      19.72       6.22
C       2.68      25.69       8.32
