38

H       3.40       9.56      12.53
H       3.38       6.68      16.35
H       3.69       7.64      14.11
H       1.47      10.63      21.48
H       1.84      12.61      20.04
H       2.66       6.90      18.70
C       2.92      13.73      17.98
C       1.76      14.72      18.06
C       2.25      16.09      18.53
I      -0.00      11.95      15.66
O       0.94      12.31      12.62
O       0.79       7.75      21.39
O       3.18      12.07      12.33
O       3.03       7.49      21.12
O       2.54      12.46      17.42
H       3.68      14.11      17.28
H       3.40      13.58      18.96
H       1.30      14.80      17.06
H       0.98      14.34      18.73
H       2.65      16.05      19.56
H       1.45      16.83      18.51
H       3.06      16.47      17.88
C       2.06      11.77      12.88
C       1.92       8.06      20.88
C       3.21       8.56      14.43
C       2.20      10.70      13.92
C       1.71      10.49      20.42
C       1.89      11.61      19.60
C       2.16      11.45      18.24
C       2.13      10.14      17.66
C       2.20       9.02      18.55
C       2.22       9.91      16.23
C       2.82       8.70      15.79
C       2.98       7.62      16.72
C       2.59       7.75      18.02
C       1.71      10.78      15.22
C       3.00       9.60      13.55
C       1.93       9.21      19.93
