36

H      12.33      16.08      32.99
H      12.33      18.58      32.98
H       9.31      16.08      36.04
H       9.31      18.58      36.05
H      10.82      20.40      36.67
H      10.82      20.40      32.36
H       9.31      27.20      32.99
H       9.31      24.71      32.98
H      12.33      27.20      36.04
H      12.33      24.71      36.05
H      10.82      22.88      32.36
H      10.82      22.88      36.67
O      10.01      13.86      35.32
C      10.82      14.44      34.52
O      11.63      13.86      33.71
O      11.63      29.42      35.32
C      10.82      28.84      34.52
O      10.01      29.42      33.71
C      10.82      15.93      34.52
C      11.67      16.64      33.65
C      11.66      18.03      33.64
C       9.98      16.64      35.38
C       9.98      18.03      35.39
C      10.82      18.75      34.52
C      10.82      20.22      34.52
C      10.81      20.95      35.72
C      10.83      20.95      33.31
C      10.82      27.35      34.52
C       9.98      26.64      33.65
C       9.98      25.25      33.64
C      11.67      26.64      35.38
C      11.66      25.25      35.39
C      10.82      24.53      34.52
C      10.82      23.06      34.52
C      10.81      22.34      33.31
C      10.83      22.34      35.72
