18

C      10.17      -3.23      10.61
O      10.99      -4.10      10.14
O       5.45      -4.34      17.18
O       9.92      -2.09      10.09
C       6.29      -5.20      16.74
O       6.50      -6.37      17.22
C       8.49      -2.84      12.53
S       9.72      -5.15      12.53
H       7.46      -1.26      12.82
C       9.44      -3.58      11.83
C       8.56      -4.83      13.77
C       7.99      -3.56      13.64
S       6.82      -3.24      14.87
C       8.04      -5.56      14.87
C       7.08      -4.82      15.57
H       9.06      -7.14      14.56
O       8.11      -1.58      12.17
O       8.42      -6.82      15.22
