32

C      10.55      20.17       9.61
H       9.02      16.92       9.11
C       9.90      19.88      10.82
C       9.54      20.91      11.69
C      10.80      19.06       8.62
C       8.88      19.38       6.98
C       7.70      18.72       6.76
C       8.76      17.64       8.34
N       9.04      22.42      15.71
N       9.53      23.05      13.66
H      11.08      22.05      16.36
N       9.54      18.68       7.97
H      11.68      22.86      13.77
N       7.64      17.63       7.62
H       7.48      22.97      14.34
H       9.95      24.29      12.03
H       8.32      23.61      12.07
H      10.80      23.54       9.94
C      10.42      22.37      15.56
H      11.42      21.73       8.40
C      10.73      22.76      14.29
H       9.64      18.85      11.06
C       8.53      22.83      14.55
H       9.01      20.67      12.61
C       9.38      23.38      12.25
H      11.50      19.37       7.83
C       9.83      22.24      11.36
H      11.20      18.17       9.10
C      10.53      22.52      10.19
H       9.29      20.28       6.53
C      10.88      21.49       9.31
H       6.91      18.95       6.05
