16

O      16.13      10.12      14.76
C      17.58      10.15      17.24
H      16.63       9.60      17.24
C      19.29      11.38      16.05
C      17.33      10.58      14.75
O      16.83       8.91      19.72
H      19.67      11.77      15.11
O      17.90      10.96      13.69
C      19.50      11.02      18.42
C      17.83       9.72      19.73
C      20.01      11.55      17.24
H      20.03      11.15      19.37
C      18.07      10.70      16.05
H      20.95      12.10      17.24
O      18.45      10.02      20.79
C      18.30      10.30      18.43
