10

O       6.13       1.27       7.92
O       3.85       1.17       8.03
H       4.01       2.76      10.00
H       7.09       2.60       9.83
O       7.23       4.13      11.87
O       4.96       4.23      11.78
C       5.00       1.56       8.44
C       4.99       2.46       9.62
C       6.12       2.90      10.20
C       6.09       3.82      11.37
