25

C      -7.37       6.77      15.11
C      -7.57       7.34      16.34
C      -7.92       6.62      17.48
C      -7.24       7.48      13.92
H      -9.12       6.96      21.18
C      -8.35       6.04      18.47
H      -7.37      10.82      11.76
C      -9.34       4.04      19.68
C      -8.92       5.39      19.57
C      -8.42       6.48      10.34
H      -7.52       8.43      16.43
H      -7.41       5.68      15.03
N      -9.84       5.01      21.60
N      -8.13      10.03       9.93
H      -9.27       3.25      18.95
N      -8.38       8.79       9.47
H      -9.57       5.30       9.42
N      -9.89       3.83      20.89
C      -9.26       5.94      20.83
O      -8.02       5.59      11.06
O      -9.38       6.26       9.37
C      -7.63       9.94      11.19
C      -8.06       7.89      10.43
C      -7.56       8.58      11.57
C      -7.28       8.03      12.82
