18

C       4.61       2.53       4.68
C       7.11       1.34       1.96
H       4.97       2.22       7.14
H       3.68       3.20       1.00
O       7.01       1.44       0.70
O       8.07       0.81       2.62
O       0.59       4.64       5.52
C       1.55       4.10       6.18
C       2.64       3.55       5.38
S       2.52       3.69       3.64
C       6.01       1.88       2.77
S       6.12       1.74       4.50
O       1.63       3.99       7.44
C       3.80       2.90       5.79
C       4.04       2.89       3.46
C       4.84       2.52       2.35
O       4.11       2.68       7.09
O       4.54       2.75       1.05
