22

P       9.33       9.20       7.85
P      12.11       9.89       6.85
H      10.48      10.96       4.68
H      10.21       9.21       4.80
H       8.13      12.38       5.60
H       5.46       9.49       4.08
H       8.03       8.40       4.14
H       7.30       9.12       7.02
C      10.28      10.28       6.68
C       9.91      10.19       5.20
C       7.74      11.47       5.14
C       6.40       9.94       4.37
C       7.66       9.38       4.41
N       8.49      10.36       4.90
N       6.47      11.23       4.83
O       9.49       7.75       7.46
O       9.77       9.70       9.22
O       7.76       9.59       7.75
O      12.36       8.40       6.85
O      12.49      10.61       8.18
O      12.73      10.55       5.61
O      10.09      11.63       7.15
