22

H       3.27      11.69       8.40
H      -3.25      13.99       6.43
H       2.01      13.68       9.16
H      -1.99      11.99       5.67
C       2.61       9.90       6.59
C      -2.59      15.77       8.24
C       1.74      10.99       7.06
C      -1.72      14.69       7.77
C       0.43      11.20       6.56
C      -0.41      14.48       8.27
C       2.27      11.90       8.01
C      -2.26      13.78       6.82
C       1.58      13.00       8.43
C      -1.56      12.67       6.40
C       0.30      13.29       7.88
C      -0.29      12.39       6.95
O       3.80       9.81       7.04
O      -3.79      15.87       7.79
O       2.16       9.08       5.69
O      -2.14      16.60       9.14
O      -0.19      10.35       5.72
O       0.21      15.32       9.11
