33

H       1.91      13.81      10.25
H       1.55      17.36      10.09
H       0.43      18.93       9.10
H      -0.58      21.77       8.93
H       6.19      13.11       8.95
H       4.70      20.28      10.11
H       5.83      16.64       9.07
H       4.49      23.80      10.20
C       4.05      12.35       9.68
C       3.98      13.82       9.66
C       5.11      14.63       9.30
C       2.32      24.26       9.50
C       4.98      16.01       9.32
C       3.64      22.14       9.88
C       3.74      20.76       9.88
C       2.40      22.79       9.56
C       2.61      19.97       9.64
C       1.37      20.58       9.37
C       1.26      21.98       9.31
C       2.61      15.81       9.94
C       2.76      14.43       9.98
C       3.74      16.62       9.61
N       2.59      18.58       9.65
N       3.74      18.01       9.55
O       4.76      22.84      10.16
O       1.41      16.36      10.22
O       0.22      19.89       9.12
O       0.05      22.52       9.03
O       6.31      14.10       8.97
O       5.12      11.80       9.18
O       3.31      24.92      10.04
O       3.08      11.70      10.18
O       1.33      24.83       8.94
