13

O       3.63       7.52       6.88
H       2.24       7.91       8.37
C       2.89       8.44       7.66
H       3.58       9.09       8.22
C       2.03       9.28       6.74
O       5.22       5.97       5.50
O       5.91       4.88       7.36
C       5.23       5.75       6.74
H       5.03       7.13       8.37
C       4.37       6.59       7.66
H       3.68       5.94       8.22
O       2.05       9.06       5.50
O       1.35      10.16       7.36
