12

C      11.61      10.48      11.55
C      13.51       9.81      13.68
C      12.86      11.09      11.58
H      10.90      10.70      10.75
C      12.26       9.20      13.65
H      14.22       9.60      14.49
C      13.87      10.74      12.68
C      11.26       9.55      12.55
O      13.28      11.98      10.74
O      11.85       8.32      14.50
O      14.99      11.33      12.62
O      10.14       8.97      12.62
