20

H      17.85      19.95      27.09
H      23.27      18.00      29.93
H      20.88      21.84      29.93
H      20.24      16.11      27.09
C      18.65      17.79      26.71
C      22.47      20.17      30.30
O      18.84      16.57      26.32
O      17.63      18.49      26.33
O      22.29      21.39      30.69
O      23.48      19.46      30.69
O      18.40      20.51      27.70
O      22.72      17.44      29.32
O      20.13      21.60      29.33
O      20.98      16.36      27.70
C      19.62      18.39      27.63
C      21.50      19.56      29.39
C      19.44      19.74      28.07
C      21.68      18.22      28.95
C      20.37      20.32      28.95
C      20.75      17.64      28.07
