16

H       6.74       4.29       4.97
H       6.52       7.31       7.79
H       8.99       3.12       4.48
H       8.96       7.14       8.35
H      11.46       3.01       4.97
H      11.22       6.00       7.82
C       9.45       3.77       5.23
C      10.79       3.69       5.49
C      10.68       5.37       7.12
C       9.29       5.53       6.91
C       8.66       4.71       5.93
C       7.28       4.91       5.69
C       7.17       6.61       7.29
C       8.51       6.50       7.59
N       6.58       5.82       6.35
N      11.39       4.50       6.42
