20

C      12.82       4.46      19.21
C      15.03       5.90      19.97
C      13.03       2.56      20.15
C      11.95       3.22      19.20
H      15.90       6.48      20.27
H      13.57       1.70      19.73
H      12.68       2.30      21.16
H      10.95       3.34      19.63
H      11.84       2.74      18.21
Cl      14.41       8.10      18.63
C      11.84       6.28      17.81
O      10.90       5.45      17.55
O      11.93       7.47      17.37
C      15.95       4.00      21.34
O      16.93       4.76      21.66
O      15.79       2.79      21.69
C      14.91       4.58      20.45
C      12.91       5.76      18.71
C      13.77       3.88      20.05
C      14.07       6.47      19.13
