35

O       3.23      13.81       8.16
H       0.74      10.77       7.61
O       1.58      12.60       9.12
H       0.60       9.48       5.45
O      -4.79       9.15       0.98
H       3.21      12.36       3.60
O      -3.11       7.93       0.10
H       3.40      13.59       5.78
H      -4.01      11.34       1.90
H      -2.35      12.81       3.06
H       0.01      12.11       3.24
H      -0.90       8.50       1.04
H       5.07       8.61       3.37
H       4.13       9.20       4.78
H       4.92      10.35       3.68
C       2.31      12.93       8.13
C       2.10      12.24       6.82
C       1.28      11.10       6.72
C       1.20      10.39       5.53
C       1.92      10.85       4.42
C       2.68      12.02       4.48
C       2.77      12.70       5.69
C      -3.55       8.92       0.77
C      -2.55       9.84       1.40
C      -2.96      11.05       1.98
C      -2.04      11.86       2.63
C      -0.70      11.46       2.73
C      -0.28      10.25       2.16
C      -1.21       9.44       1.49
C       1.10       9.78       2.22
C       3.17       9.39       2.88
C       4.39       9.39       3.73
N       2.96       8.76       1.73
N       1.68       9.00       1.32
N       2.02      10.06       3.23
