28

Br       6.79      24.06      14.29
H       9.33      25.02      13.72
H      11.01      26.45      17.41
Br       9.12      26.00      19.40
H      13.00      26.19      11.59
H      14.68      27.62      15.29
Br      14.89      26.64       9.60
Br      17.22      28.58      14.72
O      18.26      28.58      12.10
O      17.40      27.77      10.17
O       5.75      24.06      16.91
O       6.61      24.87      18.84
C      17.34      28.02      11.42
C       6.67      24.62      17.59
C       7.92      25.02      16.86
C       8.09      24.83      15.46
C       9.25      25.19      14.79
C      10.32      25.78      15.48
C      10.19      25.99      16.86
C       9.03      25.62      17.53
C      11.50      26.16      14.80
C      12.51      26.48      14.21
C      13.69      26.86      13.53
C      13.82      26.65      12.14
C      14.98      27.02      11.47
C      16.09      27.62      12.14
C      15.92      27.81      13.55
C      14.76      27.45      14.22
