42

H       2.17      -8.06      18.29
H       1.92     -10.41      21.91
H       1.92      -4.03      19.80
H       2.17      -6.39      23.42
H       2.03      -8.07      22.15
H       2.03      -6.38      19.56
H       0.30     -13.31      19.78
H       3.78     -11.18      16.53
H       3.78      -3.27      25.19
H       0.30      -1.14      21.94
C       2.04      -1.75      23.87
C       2.04     -12.70      17.84
C       2.04     -11.44      18.67
C       2.14     -10.17      18.06
C       2.11      -9.01      18.83
C       2.04      -9.05      20.23
C       1.97     -10.32      20.83
C       1.94     -11.49      20.07
C       2.04      -7.86      21.07
C       2.04      -6.58      20.64
C       1.97      -4.13      20.88
C       2.04      -5.40      21.48
C       2.11      -5.44      22.88
C       2.14      -4.28      23.65
C       2.04      -3.01      23.04
C       1.94      -2.96      21.64
C       1.84     -12.77      20.85
C       2.26      -9.97      16.57
C       2.25      -4.48      25.14
C       1.84      -1.67      20.87
O       3.01      -0.93      23.72
O       1.07      -1.57      24.69
O       3.01     -13.52      17.99
O       1.07     -12.88      17.02
O       0.98     -13.70      20.37
O       2.52     -12.97      21.83
O       3.12     -10.78      15.92
O       1.59      -9.13      15.99
O       3.12      -3.67      25.79
O       1.59      -5.32      25.72
O       0.98      -0.75      21.35
O       2.52      -1.47      19.88
