22

C      18.41      10.68       8.95
C      18.23       9.87      10.08
C      20.02       9.20       8.13
C      17.25      10.20      11.16
C      21.01       8.87       7.06
H      20.51       6.75      10.48
N      18.95       8.73      10.21
H      17.74      12.32       7.73
N      19.30      10.33       8.00
H      21.70       7.28       9.26
H      16.56      11.79       8.95
H      20.28       6.34       8.77
C      20.63       7.13       9.46
H      17.98      12.73       9.44
C      17.63      11.94       8.76
H      16.29       9.71      10.95
H      21.97       9.36       7.26
H      17.08      11.28      11.23
H      21.17       7.79       6.98
H      17.62       9.84      12.13
C      19.85       8.38       9.26
H      20.64       9.23       6.09
