28

C       2.01      -7.26      14.63
Cl       1.06      -4.75      25.99
Cl       2.97      -9.79      25.99
Cl       1.02      -4.76      22.84
Cl       3.01      -4.76      19.10
Cl       1.01      -9.77      19.10
Cl       1.06      -9.78      15.95
C       2.01      -7.27      27.31
Cl       3.01      -9.78      22.84
O       1.06      -6.66      14.05
Cl       2.97      -4.75      15.95
O       2.97      -7.87      14.05
O       1.06      -7.87      27.89
O       2.97      -6.67      27.89
C       2.01      -7.27      25.81
C       1.58      -6.13      25.11
C       1.57      -6.13      23.71
C       2.01      -7.27      22.99
C       2.45      -8.41      23.71
C       2.44      -8.41      25.11
C       2.01      -7.27      21.58
C       2.01      -7.27      20.36
C       2.01      -7.27      18.95
C       2.46      -6.13      18.23
C       2.45      -6.13      16.83
C       2.01      -7.26      16.13
C       1.58      -8.40      16.83
C       1.57      -8.40      18.23
