28

H       6.71       6.87       4.76
H       6.80       6.82       2.27
H       2.69       8.15       2.15
H       6.96       6.78      -2.15
H       2.93       8.06      -4.76
H       2.84       8.11      -2.27
C       4.96       7.45      -6.35
C       4.68       7.48       6.35
C       4.67       7.50       4.86
C       5.84       7.14       4.16
C       5.89       7.11       2.78
C       4.75       7.47       2.02
C       3.58       7.85       2.70
C       3.55       7.85       4.08
C       4.80       7.47       0.61
C       4.85       7.46      -0.61
C       4.89       7.46      -2.02
C       6.07       7.08      -2.70
C       6.10       7.08      -4.08
C       4.98       7.43      -4.86
C       3.81       7.79      -4.16
C       3.76       7.82      -2.78
O       6.07       7.30      -6.96
O       5.82       7.32       6.91
O       3.58       7.63       6.96
O       3.83       7.61      -6.91
F       2.38       8.24       4.67
F       7.26       6.70      -4.67
