32

H       2.50      -4.02       7.66
H       2.12      -2.86       6.36
H       0.81      -3.79       7.16
H       4.78       0.06       7.47
H       3.47      -0.22       6.28
H       3.88      -1.50       7.49
H      -2.57       3.74       8.34
H      -1.33       3.15       9.49
H      -2.75       2.10       9.07
H      -4.26       0.04       6.56
H      -2.82      -0.62       5.71
O       1.14       3.47       8.73
O       2.41       2.72       7.00
H      -2.93       1.15       6.07
O      -2.10      -2.69       7.04
O      -0.94      -3.41       8.84
O       1.71      -2.27       8.32
O       2.91       0.21       8.25
O      -1.30       2.35       7.56
O      -2.61      -0.10       7.73
C       0.92      -1.17       8.08
C       1.57       0.08       8.05
C       0.80       1.26       7.92
C      -0.59       1.20       7.79
C      -1.23      -0.05       7.78
C      -1.22      -2.53       7.94
C      -0.48      -1.24       7.93
C       1.50       2.58       7.88
C       1.77      -3.29       7.31
C       3.80      -0.42       7.31
C      -2.03       2.86       8.70
C      -3.18       0.14       6.43
