22

O       1.48       5.24       8.71
H       1.82       7.46       9.06
H       1.15       9.81       8.85
H      -1.36       9.45      12.31
H      -0.92       4.83      13.66
C       1.87       5.07       9.91
C      -1.71       7.35      13.87
C       1.13       7.88       9.79
C       0.75       9.19       9.66
C      -0.17       9.74      10.58
C      -0.67       8.99      11.61
C      -0.29       7.64      11.78
C       0.62       7.05      10.83
C       0.99       5.67      10.96
C       0.43       4.91      11.97
C      -0.48       5.46      12.88
C      -0.82       6.80      12.81
Br       0.78       3.04      12.13
Cl      -0.67      11.39      10.38
O       2.94       4.44      10.25
O      -1.46       8.53      14.28
O      -2.68       6.63      14.31
