20

H       2.39      10.59       8.95
H       3.10      12.61       9.52
H       2.16       8.43       8.71
H      -1.03      13.83       9.00
H       0.55       8.31      10.59
H       0.14       7.14       9.31
H      -0.81       8.63       9.48
C       2.15      13.14       9.43
C       0.43      11.25       8.95
C       1.17       8.90       8.61
C       0.87      12.64       9.18
C       0.04      13.77       9.17
C       0.19       8.20       9.55
C       0.83       8.74       7.11
N       1.41      10.31       8.92
N       2.09      14.47       9.56
N       0.79      14.87       9.40
O      -0.17       8.03       6.78
O       1.65       9.29       6.31
O      -0.78      10.98       8.77
