28

H       1.86       9.29       6.99
H       1.84      11.79       6.99
H       6.02       9.21       6.99
H       1.91      18.74       6.99
H       6.06      18.66       6.99
H       6.08      16.16       6.99
H       7.15      11.53       7.87
H       6.51      12.94       6.99
H       7.15      11.52       6.11
H       0.78      16.42       7.87
H       1.41      15.01       6.98
H       0.77      16.43       6.11
C       2.79       9.86       6.99
C       2.79      11.24       6.99
C       4.01      11.95       6.99
C       5.21      11.21       6.99
C       5.11       9.82       6.99
C       3.99      13.37       6.99
C       3.93      14.58       6.99
C       3.92      16.00       6.99
C       2.71      16.74       6.99
C       2.82      18.13       6.99
C       5.13      18.09       6.99
C       5.14      16.71       6.99
C       6.58      11.85       6.99
C       1.35      16.10       6.99
N       3.94       9.15       6.99
N       3.98      18.80       6.99
