13

N       0.00      19.33       8.54
O       1.52      16.96      12.65
O       3.34      18.18      12.11
H       2.79      19.97      10.34
C       2.16      17.84      11.94
C       1.38      18.39      10.77
C       1.86      19.48      10.04
C       1.14      19.94       8.94
C       0.18      17.79      10.37
H      -0.23      16.96      10.93
C      -0.47      18.28       9.25
H       1.48      20.79       8.35
H      -1.40      17.85       8.89
