13

H      -3.04      11.28       8.07
O      -0.66       9.41       8.16
C      -1.94       9.48       8.28
O       0.40       9.48       3.96
O       0.85      10.70       5.77
C       0.03      10.14       4.97
O      -2.60       8.77       9.09
H      -1.96      10.65       4.33
C      -2.66      10.50       7.39
N      -1.76      11.12       6.41
H      -3.52      10.01       6.91
H      -1.86       9.26       5.38
C      -1.47      10.27       5.24
