14

H       7.05       0.99       6.87
H       9.09       0.74       9.18
O       7.93       5.94       8.96
C       8.66       3.85       8.31
O       6.65      -4.13       7.01
C       8.47       1.24       8.42
C       7.67       0.49       7.62
C       7.60      -0.91       7.70
C       8.56       2.64       8.35
O       8.18      -4.11       8.71
C       7.52      -2.12       7.75
C       7.44      -3.56       7.83
O       9.63       5.75       7.43
C       8.74       5.29       8.23
