26

H      10.87      14.09      18.02
H      10.24      13.46      19.55
H      11.80      11.72      19.45
H      12.45      12.39      17.95
H      12.69      12.49      21.67
H      14.02      13.65      21.76
H      11.17      14.28      21.76
H      12.51      15.42      21.78
H      12.76      15.77      18.05
H      13.42      16.35      19.58
H      14.98      14.62      19.58
H      14.36      14.07      18.04
O       9.71      15.94      20.62
O      10.82      17.05      18.97
O      14.20      10.88      20.40
O      15.50      12.05      18.96
C      10.68      16.09      19.80
C      14.47      11.91      19.70
C      11.15      13.78      19.04
C      12.20      12.64      18.99
C      13.48      13.06      19.74
C      13.10      13.39      21.20
C      12.09      14.56      21.23
C      11.74      15.00      19.80
C      13.02      15.46      19.07
C      14.06      14.32      19.06
