38

H       2.98      12.59      30.93
H       2.92      12.78      28.50
H       7.25      12.82      28.45
H       2.06      12.92      24.33
H       6.39      12.87      24.26
H       6.32      12.78      21.83
H       6.20      12.87      26.41
H       3.12      12.87      26.36
H       7.34      11.28      32.42
H       1.96      11.54      20.30
C       4.27      12.64      20.19
C       5.03      12.38      32.57
C       5.12      12.57      31.10
C       3.92      12.64      30.38
C       3.89      12.75      29.00
C       5.10      12.80      28.26
C       6.30      12.76      28.99
C       6.33      12.65      30.37
C       5.18      12.86      26.82
C       4.14      12.88      25.96
C       3.01      12.88      23.79
C       4.22      12.88      24.51
C       5.42      12.86      23.77
C       5.39      12.81      22.38
C       4.18      12.77      21.67
C       2.97      12.83      22.41
S       7.99      12.69      31.07
S       1.31      12.89      21.71
O       3.23      12.21      19.56
O       5.37      12.94      19.61
O       6.06      11.92      33.19
O       3.93      12.67      33.16
O       8.10      11.27      31.76
O       8.93      12.67      29.98
O       8.06      13.74      32.06
O       1.20      11.50      20.97
O       0.37      12.83      22.80
O       1.23      13.98      20.77
