32

H       4.65       6.03       2.53
H       6.55       4.81      -2.57
H       8.74       5.01       1.73
H       2.45       5.67      -1.75
H       1.86       6.24       0.38
H       1.51       5.31       2.55
H       3.12       4.55       2.45
H       1.81       4.01       1.36
H       8.06       4.01      -1.65
H      10.15       5.17      -1.94
H       9.73       6.14      -0.49
H       8.78       6.33      -1.98
C       4.22       5.18      -3.75
C       7.04       5.80       3.70
C       6.72       5.57       2.25
C       4.50       5.24      -2.28
C       3.71       5.61       0.00
C       7.43       4.92       0.03
C       3.46       5.52      -1.36
C       7.73       5.16       1.36
C       5.78       5.01      -1.83
C       5.41       5.70       1.82
C       6.09       5.10      -0.45
C       5.06       5.45       0.48
C       2.26       4.89       1.86
C       9.32       5.59      -1.35
N       2.67       5.93       0.90
N       8.46       4.51      -0.86
O       5.22       5.00      -4.51
O       6.05       6.04       4.47
O       3.01       5.30      -4.14
O       8.26       5.71       4.07
