12

C       3.44       1.25       1.50
C       3.23      -1.25      -1.50
C       3.37       0.40       0.47
C       3.30      -0.40      -0.47
C       3.17      -2.89      -3.60
O       2.04      -3.23      -4.07
C       3.51       2.89       3.60
O       4.64       3.23       4.07
C       3.50       2.02       2.45
O       2.37       3.23       4.05
O       4.31      -3.23      -4.05
C       3.17      -2.02      -2.45
