16

C      18.55      15.52       9.80
S      18.57      19.12      13.82
S      18.56      18.29       9.72
Cl      18.56      21.74      10.43
H      18.57      16.04      12.62
O      18.53      15.65       8.53
C      18.57      16.90      11.95
O      18.57      14.42      10.46
C      18.56      16.77      10.57
C      18.57      18.26      12.33
C      18.57      19.13      11.22
C      18.57      20.65      12.98
C      18.58      21.87      13.78
C      18.57      20.49      11.59
O      18.56      22.98      13.15
O      18.60      21.71      15.05
