26

N      12.25      11.93       1.65
O      15.53      11.88       0.08
O      11.12      14.57       1.25
O       9.56      14.70       2.90
O      14.58      12.31       7.20
O      15.41      11.18       5.40
H      14.81      12.80       1.75
H      13.22      10.65      -1.23
H      10.56      10.35      -0.70
H      10.16      11.51       1.75
H      13.98      11.16       3.48
H      12.70      13.87       6.57
H      11.01      14.84       5.02
C      14.62      12.14       0.87
C      13.27      11.66       0.73
C      12.68      10.97      -0.34
C      11.31      10.83      -0.07
C      11.07      11.43       1.16
C      12.40      12.52       2.93
C      13.35      11.99       3.80
C      13.48      12.50       5.10
C      12.62      13.51       5.55
C      11.67      14.04       4.68
C      11.58      13.59       3.35
C      10.68      14.33       2.42
C      14.57      11.96       5.97
