28

H       6.17       5.54       4.66
H       6.27       5.28       2.17
H       2.20       3.89       4.67
H       6.65       4.67      -4.67
H       2.68       3.01      -4.65
H       2.58       3.28      -2.16
C       4.75       3.57      -6.27
C       4.10       4.99       6.27
C       4.17       4.75       4.80
C       5.33       5.12       4.10
C       5.39       4.97       2.73
C       4.31       4.41       2.01
C       3.17       4.00       2.74
C       3.09       4.18       4.12
C       4.38       4.30       0.61
C       4.48       4.25      -0.61
C       4.55       4.14      -2.01
C       5.69       4.56      -2.74
C       5.76       4.38      -4.12
C       4.68       3.81      -4.80
C       3.52       3.43      -4.10
C       3.46       3.58      -2.72
Cl       1.85       3.26       1.90
Cl       7.01       5.29      -1.91
O       5.89       3.70      -6.84
O       5.18       5.35       6.85
O       2.96       4.86       6.84
O       3.67       3.21      -6.84
