34

H       5.55      12.19      13.31
H       9.09      18.80      10.45
H       4.56      14.35      13.91
H      10.08      16.64       9.85
H       9.81      12.27      10.14
H       4.82      18.71      13.61
C       7.43      20.52      11.58
C       7.21      10.46      12.18
C       8.29      12.59      11.32
C       6.35      18.39      12.44
C       7.29      11.95      12.09
C       7.35      19.03      11.67
C       6.32      12.71      12.75
C       8.31      18.28      11.01
C       6.32      14.11      12.68
C       8.31      16.88      11.08
C       7.33      14.78      11.92
C       7.31      16.21      11.84
C       8.33      14.02      11.24
C       6.30      16.97      12.52
C       5.33      14.87      13.34
C       9.31      16.12      10.42
C       5.30      16.24      13.27
C       9.34      14.74      10.49
C       4.22      16.90      13.93
C      10.42      14.08       9.83
N       3.33      17.46      14.45
N      11.31      13.53       9.31
O       6.34      21.17      11.48
O       8.30       9.82      12.27
O       6.04       9.96      12.17
O       8.60      21.03      11.60
O       9.14      11.78      10.65
O       5.50      19.21      13.10
