20

C      24.80      15.89       5.35
C      23.67      15.31       6.29
H      25.77      15.39       5.41
H      24.96      16.98       5.44
H      23.16      16.04       6.93
H      23.96      14.45       6.90
Cl      20.19      13.80       2.35
Cl      22.36      14.92       0.57
C      20.76      13.82       5.49
C      24.99      15.96       2.00
O      19.89      13.00       5.07
O      20.91      14.20       6.70
O      25.16      15.50       0.82
O      25.74      16.81       2.59
C      23.84      15.45       2.80
C      21.75      14.39       4.52
C      23.92      15.48       4.19
C      21.62      14.39       3.11
C      22.92      14.97       5.01
C      22.64      14.91       2.27
