15

N       7.33      -1.21       4.44
N       6.99      -3.65       5.72
N       8.23      -3.01       8.07
C       6.75      -2.36       3.69
C       6.02      -3.28       4.67
C       6.49      -4.32       6.94
C       7.66      -4.38       7.91
H       7.59      -2.89       3.24
H       6.07      -2.02       2.89
H       5.61      -4.17       4.16
H       5.21      -2.73       5.15
H       6.10      -5.32       6.72
H       5.70      -3.70       7.37
H       7.33      -4.79       8.88
H       8.46      -5.02       7.50
