48

C       3.61      13.52       1.43
C       3.38      14.17      -2.87
P       2.04      13.93      -5.30
C       2.42      13.90       0.78
C       1.06      13.48      -2.73
P       2.75      14.03       5.39
O       0.82      13.10      -5.67
C       1.81      15.70      -5.67
H       4.25      14.43      -3.47
O       3.38      13.52      -5.89
C       1.06      16.52      -4.83
H       0.14      13.16      -3.22
O       3.98      13.20       5.72
C       0.95      17.89      -5.10
H       0.57      16.11      -3.95
O       1.41      13.61       5.97
C       1.58      18.44      -6.22
H       0.37      18.53      -4.43
C       2.32      17.61      -7.07
H       1.50      19.51      -6.42
C       2.45      16.25      -6.80
H       2.81      18.03      -7.96
C       1.14      13.51      -1.34
H       3.05      15.61      -7.44
C       3.46      14.18      -1.48
H       0.27      13.22      -0.75
C       2.34      13.86      -0.69
H       4.39      14.47      -1.00
C       2.62      13.98       3.59
H       4.61      13.22       3.32
C       3.71      13.56       2.82
H       0.57      14.68       3.55
C       1.42      14.36       2.95
H       1.44      15.71       7.33
C       2.98      15.78       5.83
H       1.66      18.13       7.93
C       2.17      16.35       6.83
H       3.30      19.56       6.70
C       2.29      17.70       7.15
H       4.75      18.56       4.95
C       3.21      18.50       6.46
H       4.55      16.15       4.39
C       4.02      17.94       5.47
H       0.40      14.62       1.08
C       3.91      16.58       5.16
H       4.46      13.17       0.85
C       1.33      14.31       1.57
C       2.17      13.84      -3.50
