38

C       2.42       3.35       7.86
C       1.06       2.79       4.44
C      -0.18       2.72       3.79
C      -1.17       4.18      10.00
H       1.97       2.58       3.88
C      -1.24       3.78       8.66
H       2.22       4.26      10.43
C      -0.03       3.59       7.92
H       3.28       2.86       5.97
C      -2.50       3.65       7.98
H       3.37       3.34       8.38
C      -2.55       3.52       6.61
H      -2.31       2.87       3.96
C      -1.34       3.30       5.85
H      -2.07       4.37      10.57
C      -0.08       3.32       6.53
C      -1.37       2.97       4.49
C       0.07       4.41      10.60
H      -4.23       5.50       5.77
H      -5.02       4.35       4.64
C      -4.09       4.60       5.15
H      -3.30       4.80       4.41
O      -1.03       5.53      12.34
O       1.23       5.36      12.46
H      -3.62       5.70       9.09
H      -4.84       5.11       7.91
H      -5.04       4.78       9.67
O      -1.38       1.98       1.88
O       0.88       2.10       1.77
O      -3.78       3.46       5.97
O      -3.63       3.63       8.75
C      -4.32       4.88       8.85
C      -0.22       2.25       2.38
C       1.26       4.11       9.93
C       1.23       3.67       8.59
C       1.13       3.07       5.81
C       0.08       5.13      11.90
C       2.37       3.08       6.52
