19

H      13.81      11.38      27.74
C      18.77       8.66      29.62
S      16.53      10.01      26.45
S      15.82      10.18      30.56
H      18.93       7.59      29.43
H      18.42       8.80      30.65
H      19.75       9.14      29.51
C      18.96       8.72      26.43
O      19.93       8.16      27.05
O      18.84       8.85      25.16
C      13.37      11.47      30.57
O      13.47      11.33      31.84
O      12.41      12.04      29.94
C      17.78       9.24      28.65
C      14.58      10.95      28.38
C      17.88       9.26      27.26
C      14.47      10.93      29.76
C      15.78      10.33      27.97
C      16.57       9.86      29.04
