26

O      11.79       2.60       4.65
O       7.27      -2.64      -4.59
O       6.13      -0.67      -4.59
O      12.92       0.63       4.65
H      10.19       2.84       2.80
H       8.97       2.15       0.78
H       8.91      -2.85      -2.79
H      10.17      -2.15      -0.79
H       6.77       0.86      -2.79
H       8.01       1.60      -0.79
H      12.34      -0.87       2.80
H      11.13      -1.59       0.78
C      12.06       1.44       4.17
C       6.99      -1.48      -4.11
C      11.34       1.02       2.94
C       7.76      -1.04      -2.91
C      10.39       1.87       2.35
C       9.70       1.47       1.21
C       8.73      -1.88      -2.33
C       9.43      -1.47      -1.21
C       7.52       0.21      -2.33
C       8.23       0.62      -1.21
C      11.59      -0.22       2.35
C      10.91      -0.62       1.21
C       9.94       0.22       0.60
C       9.20      -0.21      -0.61
