17

H      11.45       3.62      29.25
H      12.04      -1.06      27.68
O       8.83       0.78      26.29
O       9.60       2.81      27.66
H       9.05       2.24      27.05
O      13.46       3.67      30.64
C      11.93      -0.04      28.04
O      14.66       1.74      30.63
C       9.85       0.07      26.67
C      10.81       0.70      27.59
C      12.68       1.85      29.34
C      10.64       2.04      28.04
C      12.86       0.52      28.90
C      11.59       2.60      28.91
C      13.67       2.47      30.27
O      10.06      -1.13      26.29
H      13.72      -0.05      29.25
