20

H       5.28       3.37      11.06
H       3.52      -3.66      12.77
H       7.56      -3.58      13.68
H       7.62      -1.06      13.55
H       5.89       3.24      15.15
H       5.89       0.72      15.15
C       4.41      -3.05      12.92
C       4.36      -1.65      12.81
N       5.58       3.38      13.11
N       5.54      -3.69      13.23
C       5.39       2.74      11.94
C       5.37       1.35      11.86
Cl       5.16       0.61      10.32
Cl       2.85      -0.90      12.47
C       6.67      -2.99      13.44
C       6.69      -1.60      13.36
C       5.76       2.66      14.24
C       5.75       1.27      14.23
C       5.53       0.58      13.03
C       5.52      -0.90      13.04
