38

H       5.59       5.24       0.90
H      11.63       8.71      -1.05
H       8.43       7.57       3.35
H       8.27       7.33      -3.50
H       4.54       4.90      -1.33
H      12.48       9.38       1.16
H       7.33       6.24       2.29
H       9.86       7.74      -2.43
H      12.24       9.79       4.77
H      13.10      10.28       3.33
H       4.57       5.03      -4.95
H       3.81       4.34      -3.57
C       9.92       8.79       5.06
C       6.57       6.60      -5.25
C       6.40       5.80       0.43
C      10.74       8.28      -0.58
C       6.44       6.34      -3.78
C      10.27       8.56       3.63
C       5.37       5.44      -1.80
C      11.60       8.95       1.64
C       5.36       5.61      -3.19
C      11.47       9.06       3.03
C       7.47       6.80      -2.98
C       9.33       7.91       2.84
C       7.51       6.63      -1.59
C       9.47       7.74       1.46
C       6.41       5.94      -0.99
C      10.63       8.33       0.85
C       8.58       7.15      -0.77
C       8.48       7.08       0.64
C       7.38       6.36       1.21
C       9.75       7.74      -1.35
N      12.46       9.64       3.79
N       4.30       5.13      -3.97
O      10.87       9.01       5.90
O       5.67       6.13      -6.04
O       8.68       8.76       5.36
O       7.58       7.25      -5.64
