74

H       1.14       2.71       4.27
H      12.21      -2.65       4.15
H      11.98      -2.61      -4.44
H       1.07       2.41      -4.28
H       2.11       1.66       2.23
H      11.19      -1.63       2.11
H      11.05      -1.58      -2.37
H       2.09       1.44      -2.22
H       5.87       3.61       3.03
H       7.48      -3.64       2.98
H       7.36      -3.72      -2.97
H       5.70       3.67      -2.96
H       4.89       4.68       5.03
H       8.50      -4.68       4.99
H       8.33      -4.83      -4.96
H       4.64       4.73      -4.94
H       3.26       3.14       0.04
H       9.96      -3.18      -0.07
H       5.81       0.86       3.41
H       7.57      -0.85       3.39
H       7.40      -0.91      -3.43
H       5.64       0.80      -3.40
C       2.33       4.45       5.95
C      11.06      -4.38       5.87
C      10.84      -4.52      -5.98
C       2.12       4.31      -5.90
C       2.94       3.77       4.78
C      10.43      -3.73       4.69
C      10.22      -3.79      -4.83
C       2.78       3.63      -4.74
C       2.17       2.91       3.98
C      11.18      -2.87       3.88
C      10.97      -2.86      -4.10
C       2.07       2.69      -3.98
C       2.72       2.32       2.85
C      10.60      -2.30       2.74
C      10.45      -2.28      -2.95
C       2.65       2.15      -2.83
C       4.05       2.56       2.49
C       9.26      -2.57       2.41
C       9.14      -2.58      -2.53
C       3.95       2.50      -2.45
C       4.83       3.40       3.30
C       8.51      -3.42       3.24
C       8.37      -3.47      -3.29
C       4.68       3.40      -3.24
C       4.28       4.01       4.43
C       9.09      -4.00       4.37
C       8.91      -4.09      -4.41
C       4.09       3.98      -4.36
C       4.05       2.39       0.03
C       9.17      -2.43      -0.05
C       4.59       1.97       1.24
C       8.68      -1.99       1.18
C       8.62      -2.00      -1.27
C       4.54       1.94      -1.20
C       5.63       1.00       1.25
C       7.65      -1.02       1.22
C       7.59      -1.04      -1.27
C       5.56       0.97      -1.23
C       6.10       0.48       0.00
C       7.11      -0.53      -0.01
C       6.18       0.48       2.46
C       7.15      -0.48       2.45
C       7.03      -0.53      -2.48
C       6.06       0.44      -2.46
O       3.09       5.18       6.68
O      10.30      -5.08       6.65
O      10.34      -5.67      -6.24
O       2.61       5.45      -6.22
O       1.08       4.30       6.16
O      12.31      -4.23       6.06
O      11.81      -3.97      -6.59
O       1.14       3.73      -6.47
