10

N      14.59      10.27      13.58
N      12.33      10.27      13.58
H      14.86       9.20      15.41
C      13.46      10.64      12.95
O      14.56      11.65      11.22
C      14.16       9.61      14.70
H      12.06       9.20      15.41
N      13.46      11.36      11.72
C      12.76       9.61      14.70
O      12.35      11.65      11.22
