20

N      12.89       5.28      10.98
N      12.57      10.93      13.32
C      12.97       4.95      14.24
O      13.43       3.88      13.73
O      12.59       5.13      15.45
C      12.97      11.25      10.10
O      13.33      12.33      10.65
O      12.70      11.06       8.86
C      12.97       6.31      12.00
C      12.82       9.89      12.32
C      12.91       6.16      13.39
C      12.90      10.03      10.94
C      12.91       8.53      12.72
C      12.99       7.67      11.62
O      13.36       5.61       9.87
O      12.34       4.20      11.23
O      13.00      10.67      14.46
O      11.93      11.93      13.00
S      12.86       7.69      14.21
S      13.04       8.51      10.12
