69

Si      13.06       0.06       0.20
H      17.72      -1.85      -4.84
H      18.06      -4.71      -1.60
H      17.48       2.43       5.31
H      17.98       4.96       1.82
H       8.17      -1.85       5.07
H       8.39      -4.98       2.08
H       8.35       1.78      -4.89
H       8.39       5.01      -2.01
H      16.36      -3.63      -0.48
H      15.87      -0.94      -3.82
H      14.10       0.24      -2.60
H      14.59      -2.45       0.73
H      10.25       4.05      -0.99
H       9.88       0.64      -3.60
H      11.60      -0.54      -2.31
H      11.97       2.87       0.30
H      15.73       1.34       4.26
H      16.31       3.79       0.75
H      14.59       2.50      -0.43
H      14.02       0.04       3.07
H       9.79      -0.66       3.91
H      10.30      -4.00       1.22
H      12.06      -2.77       0.03
H      11.55       0.56       2.72
C      17.97      -2.65      -4.15
C      17.38      -3.01      -2.93
C      18.15      -4.11      -2.50
C      17.76       3.16       4.56
C      17.23       3.39       3.28
C      18.02       4.45       2.78
C       8.05      -2.72       4.43
C       8.79      -3.12       3.30
C       8.17      -4.32       2.91
C       8.19       2.67      -4.30
C       8.86       3.11      -3.14
C       8.22       4.32      -2.83
C      15.87      -2.78      -0.96
C      16.27      -2.36      -2.24
C      15.59      -1.28      -2.82
C      14.58      -0.61      -2.13
C      14.20      -1.01      -0.84
C      14.86      -2.11      -0.27
C      10.54       3.04      -1.29
C       9.92       2.44      -2.40
C      10.34       1.14      -2.75
C      11.31       0.48      -2.02
C      11.93       1.07      -0.90
C      11.52       2.37      -0.56
C      15.48       1.61       3.23
C      16.16       2.67       2.60
C      15.80       2.98       1.27
C      14.83       2.24       0.60
C      14.16       1.17       1.23
C      14.51       0.88       2.55
C      10.29      -1.14       3.06
C       9.89      -2.42       2.65
C      10.57      -3.00       1.56
C      11.57      -2.30       0.89
C      11.95      -1.00       1.28
C      11.29      -0.45       2.39
N      19.12      -4.37      -3.39
N      19.01      -3.47      -4.42
N      18.94       4.81       3.69
N      18.78       4.01       4.80
N       7.14      -4.60       3.74
N       7.07      -3.61       4.69
N       7.25       4.58      -3.73
N       7.23       3.56      -4.65
