15

C       0.85      13.68      25.13
H      -1.40      11.39      23.85
C       1.83      11.52      25.06
N       2.12       9.36      24.72
O       1.71      15.53      26.39
N       2.71      10.47      25.16
C       0.90      15.13      25.53
C      -0.33      13.15      24.52
N       0.87       9.64      24.34
C       1.93      12.86      25.41
H       2.83      13.27      25.87
C      -0.47      11.80      24.23
O       0.01      15.87      24.94
C       0.64      10.98      24.51
H      -1.14      13.84      24.30
