33

H       2.53       6.38      12.76
O      -0.57       1.10      11.69
O      -1.13       0.31      13.74
H       4.01       7.67      11.30
H       5.76       9.41      11.01
H       0.48       5.77      17.37
H       6.43      10.85      12.91
H       0.46       5.74      12.86
H      -0.29       3.62      11.77
H       1.02       3.64      16.58
H       0.09       1.57      15.52
H       5.31      10.62      15.12
H       3.71       9.48      16.59
C       0.80       4.81      14.77
C       2.76       7.06      13.58
C       2.19       6.93      14.83
C       4.04       8.98      14.49
C       3.68       8.11      13.40
C       3.43       8.83      15.76
C       2.51       7.81      15.91
C       5.03       9.98      14.28
C       4.31       8.31      12.13
C       5.27       9.28      11.97
C       1.10       6.34      16.69
C       5.64      10.11      13.05
C       0.43       4.81      13.42
C      -0.13       2.46      13.59
C      -0.01       3.63      12.83
C       0.70       3.64      15.54
C       0.20       2.48      14.95
C      -0.66       1.19      12.99
N       1.80       7.41      17.04
N       1.30       5.99      15.38
