74

H      -0.71       1.69       3.78
H      -5.52       7.74      12.55
H      -3.30       1.99       8.20
H     -12.27       7.44       8.12
H      -4.25       1.84      10.74
H     -11.33       7.59       5.58
H      -4.69       3.94      12.81
H     -10.88       5.49       3.52
H      -4.12       2.72      14.92
H      -2.10       6.71       1.41
H      -7.08      -0.10      14.27
H      -8.50       9.53       2.06
H      -7.77       1.00      12.13
H      -7.81       8.43       4.19
H      -8.48       3.66      13.24
H      -7.10       5.78       3.09
H     -10.64       5.10      12.55
H      -4.93       4.33       3.78
H      -4.95       1.64       4.59
H     -10.63       7.79      11.74
H      -2.99       0.78       3.32
H     -12.59       8.65      13.00
H      -0.41       3.44       5.53
H      -5.81       5.99      10.79
H      -2.36       4.27       6.81
H      -3.86       5.16       9.52
C      -1.57       2.06       4.33
C      -4.66       7.37      11.99
C      -5.10       3.29       7.88
C     -10.48       6.14       8.44
C      -4.18       2.46       8.62
C     -11.39       6.97       7.70
C      -4.67       2.38       9.90
C     -10.91       7.05       6.43
C      -5.88       3.16       9.93
C      -9.70       6.27       6.40
C      -6.70       3.26      11.05
C      -8.88       6.17       5.27
C      -6.28       2.56      12.29
C      -9.29       6.87       4.03
C      -5.24       3.04      13.09
C     -10.34       6.39       3.23
C      -4.92       2.37      14.27
C     -10.65       7.06       2.06
C      -6.57       0.80      13.91
C      -9.01       8.63       2.41
C      -6.95       1.41      12.72
C      -8.62       8.02       3.60
C      -7.89       3.97      11.09
C      -7.68       5.46       5.24
C      -8.71       4.08      12.27
C      -6.86       5.35       4.06
C      -9.80       4.82      11.93
C      -5.77       4.61       4.40
C      -9.65       5.17      10.53
C      -5.93       4.26       5.79
C      -4.97       3.54       6.51
C     -10.60       5.89       9.81
C      -3.79       3.01       5.78
C     -11.79       6.42      10.54
C      -3.95       2.03       4.79
C     -11.63       7.40      11.54
C      -2.85       1.56       4.07
C     -12.73       7.87      12.25
C      -1.40       3.04       5.32
C      -4.83       6.39      11.00
C      -2.50       3.50       6.04
C     -13.08       5.93      10.28
N      -6.14       3.72       8.69
N      -9.44       5.71       7.63
N      -8.46       4.65      10.03
N      -7.11       4.78       6.30
N      -5.57       1.26      14.68
N     -10.01       8.17       1.64
