14

C      13.98      -3.84       9.91
O      13.63      -5.00       9.47
O      14.89      -3.11       9.40
C      11.56      -1.10      14.67
O      10.64      -0.37      14.18
O      11.74      -1.24      15.95
H      12.61      -4.03      11.62
H      13.89      -1.37      10.75
C      13.31      -2.02      11.41
C      13.25      -3.33      11.09
H      13.04      -2.65      14.14
C      12.46      -1.81      13.75
H      12.01      -0.48      12.21
C      12.55      -1.40      12.47
