15

N       2.85      10.22       3.29
H       3.96       9.47       8.13
H       1.62      10.30       8.01
N       2.48      10.37       6.05
C       2.24      11.42       3.88
H       1.20       8.95       6.90
N       3.75       8.00       6.65
C       1.51      11.06       5.19
H       1.09      11.95       5.67
C       2.00       9.63       7.23
H       0.71      10.35       4.97
H       1.54      11.91       3.19
C       3.17       8.80       7.75
H       2.83       8.15       8.57
H       3.06      12.12       4.10
