42

O       5.59       7.78      11.04
O       5.32       5.53      10.99
H       5.47       4.57       8.78
H       5.54       8.83       8.91
H       5.72       9.03       2.09
O       5.57       5.80      -0.17
O       5.81       8.06      -0.14
H       5.66       4.76       1.97
O       6.71       2.77       3.17
H       7.41       3.43       3.36
H       3.58       3.26       7.08
H       3.70      10.57       4.02
O       4.64       2.30       3.89
H       7.26      10.10       7.72
O       4.28       2.63       7.34
O       6.45       2.27       6.91
O       4.44      11.07       3.61
O       6.67      11.18       3.78
C       5.47       6.67      10.44
O       6.58      10.80       7.80
O       4.65      11.36       6.82
C       5.69       6.92       0.42
C       5.49       5.51       8.22
C       5.52       5.52       6.82
C       5.51       4.31       6.05
C       5.55       7.93       8.29
C       5.60       8.00       6.89
C       5.61       9.26       6.18
C       5.69       8.09       2.64
C       5.64       8.07       4.04
C       5.60       9.29       4.81
C       5.67       5.66       2.58
C       5.65       5.60       3.98
C       5.61       4.34       4.68
C       5.51       6.70       8.95
C       5.58       6.78       6.14
C       5.70       6.90       1.92
C       5.63       6.82       4.73
C       5.59       3.05       3.90
C       5.48       2.98       6.78
C       5.64      10.60       4.06
C       5.56      10.56       6.94
