22

H       4.53      16.09       4.13
H       6.51      14.80       4.54
H       6.85      17.13       3.96
H       8.17      16.17       3.27
C       4.79      15.34       3.34
H       7.05      16.23       1.03
C       6.30      15.09       3.50
H       7.32      17.87       1.61
H       4.96      18.02       2.37
C       7.09      16.38       3.18
C       6.75      16.94       1.81
H       5.02      17.56       0.66
C       5.24      17.21       1.68
H       4.57      15.20       1.22
C       4.42      15.96       1.99
H       3.35      16.20       2.00
O       4.42      13.27       4.53
C       3.92      14.13       3.69
O       2.75      14.04       3.25
C       6.82      13.94       2.63
O       8.01      13.52       2.96
O       6.16      13.48       1.68
