44

H      -0.02      16.30       8.35
H      -2.22      16.44      12.05
H      -4.34      16.36       8.29
H       0.01      17.47      20.49
H      -2.07      17.37      16.71
H       5.03      17.53      20.39
H       4.99      16.93      14.32
H       0.03      16.88      14.44
C      -1.95      16.54       4.11
C      -2.45      17.20      24.63
C      -2.18      16.31       8.17
C      -0.96      16.32       8.88
C      -0.97      16.37      10.29
C      -2.21      16.39      10.96
C      -3.43      16.39      10.26
C      -3.41      16.35       8.85
C      -2.16      17.52      20.58
C      -0.92      17.48      19.91
C      -0.89      17.43      18.51
C      -2.10      17.42      17.79
C       6.01      17.45      18.46
C       5.98      17.51      19.86
C       3.19      16.73      13.15
C       1.77      16.72      13.18
C       1.12      16.89      14.41
C       1.83      17.07      15.61
C       3.25      17.09      15.58
C       3.90      16.92      14.35
C       4.04      17.25      16.73
C       4.86      17.37      17.63
C       0.28      17.34      17.72
C       1.08      17.23      16.80
C       0.98      16.56      12.02
C       0.18      16.44      11.11
C      -4.59      16.47      11.05
C      -5.40      16.57      11.96
C      -2.21      17.52      22.00
C      -2.30      17.46      23.22
C      -2.15      16.32       6.75
C      -2.13      16.37       5.53
O      -1.41      15.60       3.46
O      -2.31      17.68       3.64
O      -3.04      18.10      25.34
O      -2.00      16.09      25.03
