18

O       6.29       6.95       0.44
O       4.78       3.80      -0.44
O       5.76       3.91       2.32
H       3.05       2.63      -2.06
O       5.20       5.35      -2.56
H       6.66       7.60      -0.21
H       2.78       3.83       0.12
H       3.79       2.59       0.94
H       4.09       1.41      -1.27
H       2.37       1.52      -0.84
O       4.22       5.59       2.33
O       6.53       7.17      -2.16
C       3.59       3.09      -0.02
C       3.26       2.10      -1.11
C       5.72       5.97      -0.33
C       5.15       4.89       0.27
C       5.05       4.80       1.77
C       5.82       6.15      -1.80
