12

O       1.40       4.95       7.42
C       0.24       5.16       7.90
C      -0.27       9.97      15.77
C      -0.23       9.20      14.56
C       0.17       5.90       9.13
O      -0.88       4.79       7.41
O       0.86      10.35      16.22
C      -0.16       8.56      13.51
C       0.10       6.53      10.18
C       0.01       7.22      11.32
C      -0.07       7.86      12.37
O      -1.41      10.18      16.29
