48

F       0.74      17.23       6.09
F       3.06      17.30       1.98
F       1.07      10.52      -1.95
F       3.41       7.01       0.17
F       3.22       6.98       7.84
H       2.04      12.84       1.87
H       2.05       9.11       4.01
H       2.04      12.84       6.17
H       3.06      14.73       2.15
H       0.83      14.66       5.88
H       1.03      11.64       0.36
H       3.26       8.45       2.30
H       3.14       8.41       5.77
F       0.90      10.59       9.93
H       0.96      11.66       7.65
C       2.06       7.97      10.29
C       2.27       7.97      -2.24
C       1.89      18.83       4.05
C       2.09      10.89       2.79
C       2.04      12.29       2.81
C       1.99      13.01       4.02
C       2.01      12.29       5.22
C       2.04      10.89       5.24
C       2.08      10.20       4.02
C       2.50      16.60       3.00
C       2.54      15.22       2.97
C       1.96      14.49       4.02
C       1.34      15.18       5.07
C       1.34      16.57       5.06
C       1.91      17.33       4.04
C       1.57      10.69       0.35
C       1.63       9.98      -0.84
C       2.24       8.73      -0.94
C       2.79       8.22       0.23
C       2.76       8.90       1.44
C       2.14      10.15       1.51
C       2.64       8.88       6.61
C       2.64       8.20       7.83
C       2.06       8.72       9.00
C       1.47       9.99       8.86
C       1.46      10.70       7.67
C       2.05      10.15       6.52
O       1.11       8.21      11.10
O       3.01       7.15      10.49
O       1.33       7.14      -2.44
O       3.23       8.21      -3.03
O       0.93      19.39       3.44
O       2.84      19.41       4.66
