29

N       5.31       5.63       2.62
N       1.10      14.39       1.43
H       3.33       5.02       2.83
H       2.41       6.62       1.18
H       6.47       8.00       0.53
H       7.23       6.32       2.18
H       4.63       8.82      -0.92
H       2.99       8.15      -0.75
H       4.26      10.20       1.14
H       2.64       9.52       1.32
H       3.64      11.20      -1.06
H       2.08      10.40      -1.01
H       3.14      11.83       2.25
H       2.05      13.86       3.19
H       0.21      14.75      -0.39
H       1.12      12.67      -1.47
C       4.00       5.71       2.32
C       3.49       6.63       1.40
C       4.37       7.50       0.76
C       5.73       7.38       1.04
C       6.17       6.45       1.97
C       3.85       8.55      -0.19
C       3.41       9.81       0.58
C       2.84      10.86      -0.37
C       2.24      12.08       0.29
C       2.49      12.44       1.62
C       1.89      13.58       2.15
C       0.84      14.05       0.15
C       1.38      12.91      -0.44
