13

O       3.68       5.29       3.05
H       2.24       3.85       2.61
H       3.56       3.32       3.70
H       5.11       4.18       2.03
H       3.79       4.87       1.03
O       1.35       3.57       5.06
O       2.09       5.73       5.06
O       6.01       6.17       0.57
O       5.26       7.25       2.43
C       2.05       4.55       4.63
C       2.90       4.16       3.43
C       5.31       6.28       1.62
C       4.45       5.05       1.89
