19

H      16.32       7.17       5.13
H      16.43      11.84       9.59
H      18.06      11.47       8.98
H      17.19      12.92       8.41
C      14.66      12.64       6.75
C      18.37       6.15       6.85
C      16.49      11.05       7.60
C      16.69       7.83       5.91
C      15.45      11.41       6.74
C      17.69       7.45       6.80
C      16.25       9.14       6.19
C      16.92       9.74       7.28
C      17.08      11.87       8.70
S      15.05      10.19       5.55
S      18.10       8.67       7.96
O      13.76      12.79       5.84
O      19.19       5.95       7.81
O      18.07       5.31       5.93
O      14.89      13.47       7.70
