52

O       3.71       7.47       0.76
O       4.06       9.59       0.39
O       9.19      13.95      -0.39
O       9.59      16.07      -0.77
O       8.50      10.40       2.60
O       4.77      13.17      -2.82
H       4.19       6.49       1.92
H       9.06      17.09      -1.83
O       4.96      14.87      -5.85
O       3.48      15.30      -4.27
O       9.61       9.09       4.53
O       8.11       8.41       5.99
H       9.23      10.14       3.23
H       4.96      12.49      -2.14
H       4.62      12.80       2.20
O       4.97      11.88       2.19
O       8.26      11.64      -2.24
H       8.59      10.71      -2.27
O       5.19      14.06       0.60
O       8.06       9.47      -0.63
H       8.96       9.47      -0.22
H       4.28      14.09       0.20
C       6.59      17.28      -4.73
C       6.62       6.37       4.82
C       5.58       7.41       2.78
C       7.63      16.22      -2.68
C       5.50       8.50       1.85
C       7.74      15.09      -1.80
C       6.47       9.52       1.79
C       6.79      14.04      -1.82
C       7.54       9.47       2.71
C       5.75      14.11      -2.75
C       7.51       8.49       3.74
C       5.71      15.17      -3.67
C       6.57       7.47       3.79
C       6.63      16.21      -3.68
C       5.77      11.81       1.09
C       7.45      11.71      -1.15
C       5.88      12.92       0.23
C       7.35      10.61      -0.28
C       6.74      12.89      -0.88
C       6.49      10.64       0.83
N       4.38       8.53       0.95
N       8.88      15.03      -0.94
N       8.47       8.66       4.84
N       4.63      15.12      -4.68
O       7.71      17.63      -5.20
O       5.51       6.05       5.33
O       5.44      17.69      -5.08
O       7.76       5.87       5.06
O       4.76       6.36       2.74
O       8.42      17.28      -2.59
