28

H      18.10       6.85       2.89
H      18.09       4.66       4.09
H      22.33       4.26       3.37
H      22.32       6.46       2.18
H      18.13       0.88       6.31
H      18.14      -1.31       7.52
O      19.12      -3.36       8.38
H      22.29       0.34       5.33
O      21.30      -3.69       7.76
H      22.28      -1.86       6.51
O      21.34       8.55       1.37
O      19.08       8.66       1.58
C      20.21      -3.02       7.79
C      20.21       8.09       1.76
C      20.21       6.78       2.47
C      19.02       6.27       3.00
C      19.01       5.05       3.67
C      20.21       4.31       3.81
C      21.41       4.83       3.26
C      21.40       6.06       2.60
C      20.21       3.07       4.48
C      20.21       2.00       5.07
C      20.21       0.76       5.74
C      19.03       0.28       6.36
C      19.04      -0.94       7.03
C      20.21      -1.71       7.08
C      21.38      -1.25       6.46
C      21.39      -0.03       5.80
