20

C       6.95       5.30       4.61
C       9.03       5.30       5.07
C       7.85       5.30       8.61
C       8.31       5.30       9.92
C       9.69       5.30      10.20
C      10.60       5.30       9.14
C      10.15       5.30       7.82
C       8.78       5.30       7.56
H       6.03       5.30       4.02
C      10.18       5.30      11.62
H      10.11       5.30       5.00
H       6.79       5.30       8.38
H       7.61       5.30      10.75
H      11.67       5.30       9.35
H      10.88       5.30       7.01
N       8.31       5.30       6.22
N       6.97       5.30       5.93
N       8.20       5.30       4.04
O       9.29       5.30      12.54
O      11.44       5.30      11.78
