26

O      16.59       8.62      14.66
H      14.91      15.30      17.45
H      13.65      12.42      13.88
H      17.07      11.46      17.33
H      15.86      13.60      17.42
H      11.56      16.30      13.95
H      12.71      14.12      13.90
O      12.07      19.16      16.59
O      17.67       9.29      16.54
O      10.96      18.46      14.74
F      13.85      17.54      17.66
F      14.76      10.21      13.63
C      16.83       9.46      15.59
C      11.82      18.31      15.67
C      12.56      17.02      15.69
C      16.07      10.74      15.58
C      13.52      16.69      16.66
C      14.18      15.47      16.66
C      15.09      11.06      14.63
C      14.39      12.26      14.66
C      16.31      11.70      16.58
C      15.62      12.90      16.63
C      12.30      16.05      14.71
C      12.96      14.83      14.69
C      13.92      14.51      15.67
C      14.65      13.22      15.66
