23

H       5.06       1.39       9.22
N       3.64      -0.78       1.77
H       4.92      -0.36       9.45
N       2.78      -0.99       3.78
N       3.84       0.47       7.84
H       3.07      -1.52       7.72
N       3.80       1.58       7.07
H       1.49      -1.61       5.31
N       3.14       1.27       5.97
H       1.16      -0.02       4.61
O       2.07       0.37       9.95
H       3.95      -2.68       4.45
O       3.64       1.33      11.29
H       5.01      -2.44       1.89
H       2.06       0.54       2.46
C       3.23       0.75      10.22
C       4.36       0.55       9.19
C       3.19      -0.56       7.25
C       2.74      -0.04       6.05
C       1.96      -0.68       4.96
C       3.72      -1.99       3.65
C       4.25      -1.85       2.39
C       2.75      -0.28       2.63
