26

H       0.96       7.76       3.70
H       0.87       9.72       5.22
H       2.34       5.31       6.97
H       3.71       2.65       3.19
H      -0.27       3.71       1.96
H      -0.21       5.67       3.50
C       1.71       1.92       1.53
C       1.66       9.86       7.80
C       1.25       7.65       4.74
C       1.21       8.75       5.59
C       1.64       8.65       6.92
C       2.05       7.40       7.39
C       2.05       6.28       6.56
C       1.69       6.40       5.21
C       2.83       4.35       4.20
C       2.84       3.30       3.28
C       1.71       3.06       2.48
C       0.61       3.91       2.57
C       0.65       5.00       3.44
C       1.74       5.24       4.30
Br       2.57       7.18       9.21
Br       4.41       4.56       5.26
O       2.84       1.42       1.22
O       0.52      10.31       8.16
O       0.58       1.53       1.09
O       2.80      10.34       8.09
