13

C       5.07       1.30       6.00
O       4.20       2.43       4.09
C       3.66       3.74       2.19
H       3.45       1.61       2.33
H       2.26       2.53       3.31
H       3.12       2.19       5.86
H       3.32       0.70       4.87
O       6.12       1.94       5.74
O       4.91       0.39       6.88
O       4.74       4.33       2.44
O       2.80       4.06       1.31
C       3.81       1.63       5.20
C       3.31       2.49       2.98
