14

N       1.42       5.64       8.11
N      -1.43       5.65       8.04
H       1.21       4.85      10.03
H      -1.32       4.87       9.96
H      -1.19       6.01       4.89
H      -1.19       7.65       5.58
H       1.36       6.00       4.96
H       1.35       7.64       5.66
C       0.72       6.07       7.07
C       0.66       5.20       9.15
C      -0.73       5.21       9.12
C      -0.67       6.07       7.03
C      -0.73       6.66       5.64
C       0.86       6.65       5.68
