18

O      20.54      17.37      18.24
O      22.76      16.99      17.83
S      23.05      14.74      19.58
S      20.06      12.21      21.00
C      21.60      16.67      18.29
C      20.47      14.59      19.41
C      22.68      12.32      21.14
C      21.61      10.35      22.36
O      20.47       9.81      22.58
C      21.55      15.38      19.01
O      22.75       9.95      22.78
C      21.59      11.57      21.54
C      22.26      13.43      20.37
H      23.71      12.06      21.40
C      20.86      13.50      20.21
N      19.07      14.75      19.03
O      18.24      14.28      19.83
O      18.79      15.28      17.95
