20

O       1.81      16.87       2.67
O       2.88      17.62       0.79
O       6.74      19.72       6.69
H       4.51      19.45       1.42
H       6.27      20.45       2.86
H       5.56      16.60       6.46
H       4.38      17.75       7.12
H       3.78      15.58       5.01
H       2.58      16.73       5.65
C       2.76      17.47       2.06
C       4.03      17.64       4.23
C       3.81      18.07       2.92
C       4.65      19.10       2.45
C       5.63      19.66       3.25
C       5.84      19.23       4.58
C       5.01      18.21       5.04
C       4.73      17.27       6.20
C       3.61      16.63       5.28
C       6.89      19.86       5.43
O       7.83      20.46       4.82
