16

C       6.48       9.99       2.69
O       6.83       9.75       3.90
O       5.62      10.84       2.30
C       8.69       7.72       0.42
O      11.06       5.46      -2.37
H       6.26      10.02      -0.17
S       8.16       8.12      -2.10
S       8.40       8.07       2.08
C       9.56       6.88      -0.30
C       6.99       9.33       0.27
C       9.41       6.98      -1.68
C       7.17       9.22       1.63
C       7.86       8.47      -0.43
F      10.45       6.07       0.32
C      10.15       6.28      -2.74
O       9.83       6.57      -3.94
