20

C      16.11      15.24      15.04
C      16.13      17.66      15.20
C      18.22      16.44      15.12
N      16.82      16.58      13.07
N      16.82      16.41      15.63
H      18.72      17.29      15.59
H      15.09      17.74      13.25
H      16.60      18.66      13.29
H      16.66      14.49      13.04
H      15.11      15.36      13.08
H      18.72      17.47      13.23
H      18.73      15.70      13.11
H      15.09      15.24      15.44
H      16.60      14.33      15.41
H      16.66      18.50      15.66
H      15.11      17.63      15.62
H      18.72      15.52      15.47
C      16.11      17.75      13.66
C      16.13      15.33      13.50
C      18.22      16.55      13.58
