30

C       8.27      12.81       8.79
C       6.20      18.56       8.99
H       9.09      18.93      10.80
H       5.38      12.22      10.56
H       9.09      12.28       8.31
H       5.41      19.14       8.51
O       8.41      21.23       9.49
O       6.22       9.98       9.22
O       8.40      10.08       9.80
O       6.23      21.29      10.07
H       9.00      15.39      10.79
H       5.33      15.75      10.76
H       8.99      15.81       8.05
H       5.37      15.63       8.06
O       9.18      16.35      10.89
O       5.18      14.79      10.78
C       7.31      20.66       9.75
C       7.30      10.62       9.49
C       7.25      19.17       9.67
C       7.24      12.11       9.44
C       7.20      16.39       9.49
C       7.18      14.91       9.42
O       9.18      14.85       8.05
O       5.22      16.60       8.11
C       8.22      17.05      10.22
C       6.17      14.17      10.08
C       8.21      14.20       8.74
C       6.20      17.17       8.86
C       8.27      18.44      10.27
C       6.18      12.77      10.06
