22

H       3.59      10.59       7.52
H       3.32      13.11       7.44
H       2.68      17.04       6.63
H       5.51      16.95       9.89
C       4.24      11.26       8.08
C       4.10      12.63       8.04
C       4.98      13.43       8.79
C       5.97      12.81       9.57
C       6.05      11.39       9.55
C       3.32      17.54       7.36
C       4.09      16.81       8.27
C       4.90      17.49       9.18
C       4.90      18.88       9.15
C       3.40      18.93       7.40
N       5.21      10.66       8.82
N       4.98      14.84       8.81
N       4.02      15.39       8.20
N       4.15      19.61       8.29
Cl       7.23      10.61      10.48
Cl       7.05      13.72      10.52
Cl       2.53      19.81       6.23
Cl       5.94      19.68      10.24
