54

S       0.02      12.54      10.34
S      -3.51      13.39       5.01
S      -3.13      14.39      10.08
Br       0.19      15.90       7.21
Br       1.77      13.04       7.06
H      -1.06      14.70       9.11
H      -1.04      14.60       5.54
H      -0.17      12.54       5.66
H      -4.02      13.09       7.26
H      -2.89      11.07       7.49
H      -2.03      11.86       9.41
N      -4.77      19.92       8.12
H      -2.12      11.31       5.92
N      -3.62      20.27       7.45
H      -0.23       6.84       8.62
N       1.85       6.43       8.47
N       2.93       7.14       8.04
H      -2.05      19.19       6.53
O       3.50      10.65       8.49
O       1.02      11.54      10.11
O       0.39      13.92      10.58
O      -0.84      11.99      11.57
O      -4.23      14.62       4.87
O      -2.38      13.09       4.14
H      -1.65      12.57      11.69
O      -3.17      13.33      11.06
O      -2.94      15.75      10.49
O      -4.52      14.24       9.29
H      -4.58      15.02       8.68
O      -4.56      12.16       4.88
H      -4.34      11.65       4.07
O       4.96       9.00       7.32
H      -5.68      18.08       8.63
C       2.51       8.37       7.69
H       2.74      11.08       6.22
C      -4.85      18.58       8.15
O       3.31      10.27       6.05
C       1.10       8.47       7.85
C      -3.73      18.03       7.50
C      -1.84      13.97       8.84
C      -0.85      14.36       6.59
C      -0.15      12.97       6.66
C       0.32       9.62       7.68
C      -2.21      14.29       7.35
C      -1.28      12.55       9.00
C      -0.92      11.98       7.59
C      -2.30      11.78       6.90
C      -3.05      13.11       6.75
C      -0.25      10.70       7.64
C      -2.90      15.56       7.27
C      -3.35      16.69       7.37
C      -2.99      19.15       7.07
C       0.75       7.20       8.33
S       3.68       9.65       7.47
