30

H       8.39       8.28      14.68
F       5.15       5.79      17.33
H       7.95       8.38      16.95
H       5.87       7.67      17.43
H       5.16       6.33      15.01
C       7.84       6.54      21.42
C       8.49       7.29      15.15
C       7.02       6.61      10.58
C       7.31       6.40      14.67
C       8.43       7.43      16.70
C       6.11       6.72      16.92
C       6.01       6.90      15.38
C       7.07       6.54      12.03
C       7.54       6.30      17.33
C       7.50       4.91      15.18
C       7.93       4.92      16.70
C       7.17       6.45      13.23
C       7.69       6.31      18.77
C       7.78       6.42      19.98
Cl       5.67       8.61      14.96
Cl       7.25       3.54      17.56
Cl       8.63       3.98      14.20
O       8.97       6.35      21.96
O       6.74       6.83      21.99
O       8.10       6.95      10.01
O       5.91       6.31      10.04
F       9.70       7.46      17.23
F       9.31       4.82      16.78
F       9.71       6.76      14.74
F       6.26       4.30      15.06
