48

H      -0.92       7.16       5.12
H      -2.42       6.84       4.16
H      -1.12       5.60       4.24
O      -2.25       5.73       5.92
O      -5.13       5.29       4.93
O      -5.37       4.38       7.00
H      -6.08       3.81       6.56
O      -0.55       9.67       7.65
O      -5.06      10.43       8.06
O      -5.81       9.42       9.95
H      -6.49      10.16       9.93
H      -2.20       7.54      11.08
O      -2.39       8.94       9.54
H      -3.76       8.44      11.07
H      -2.24       9.27      11.54
O      -0.79       4.90       8.07
O       2.03      10.67       7.97
H      -1.67       5.25       9.94
H      -0.14       4.28       9.97
H      -1.67       3.56       9.33
O       1.84       3.80       8.45
H      -1.05       9.58       5.62
H       0.55      10.34       5.98
H      -0.98      11.20       6.39
C      -2.90       6.54       6.81
C       0.05       8.46       7.80
C      -4.29       6.44       6.90
C       1.44       8.34       8.01
C      -4.38       8.21       8.40
C       1.30       6.03       7.86
C      -2.99       8.18       8.57
C      -0.10       6.07       7.97
O       2.61       9.41       9.77
H       2.42      11.39       8.52
C      -2.22       7.36       7.73
C      -0.75       7.30       7.84
H       2.16       2.93       8.11
O       2.04       4.41       6.28
C      -1.64       6.39       4.80
C      -0.49      10.22       6.31
C      -4.98       5.32       6.15
C       2.15       9.52       8.64
C      -5.13       9.47       8.81
C       1.83       4.68       7.45
C      -2.68       8.51      10.89
C      -1.08       4.48       9.42
N      -5.02       7.27       7.68
N       2.07       7.14       7.94
