16

O       3.81       6.35      18.01
C       6.11       3.19      13.21
C       3.93       4.48      15.74
C       5.08       2.45      12.65
C       4.96       5.23      16.30
C       4.34       3.74      14.61
C       5.70       3.94      14.34
C       5.10       1.57      11.48
F       7.37       3.23      12.74
F       2.68       4.44      16.21
C       4.94       6.11      17.48
S       3.58       2.66      13.50
S       6.46       5.01      15.45
O       6.23       1.32      10.94
O       3.96       1.13      11.10
O       6.08       6.54      17.85
