20

H       5.96       1.25       5.70
H       3.81      -0.93       5.87
C       5.15      -2.82       8.87
C       5.04      -0.56       7.69
C       5.17      -1.32       8.84
C       5.30      -0.58      10.02
C       5.29       0.83      10.05
C       5.19       1.58       8.87
C       5.10       0.83       7.70
C       5.03       0.94       6.19
C       4.81      -0.62       6.19
C       5.19       3.08       8.88
Cl       5.45       1.62      11.57
Cl       3.71       1.94       5.49
O       6.22      -3.40       9.22
O       4.06      -3.38       8.52
O       6.26       3.64       8.48
O       4.13       3.65       9.27
F       5.74      -1.35       5.43
F       5.39      -1.24      11.20
