12

C       1.99      10.08       7.35
C       0.56      10.13       7.82
C       0.22      11.10       8.75
C      -1.96      10.34       8.78
C      -0.46       9.25       7.43
H       0.97      11.79       9.12
H      -2.98      10.46       9.14
H      -0.28       8.44       6.73
O       2.14       9.47       6.21
O       2.88      10.61       8.04
N      -1.03      11.21       9.24
N      -1.71       9.36       7.91
