36

H      23.11       9.38      10.09
H      25.38       7.11      13.30
O      23.05       9.42      11.77
H      25.42       7.12       6.86
H      27.69       4.85      10.07
O      24.18       8.29      13.37
H      28.81       3.73       8.48
H      26.54       6.00       5.27
H      28.81       3.69       2.04
O      31.11       1.36       3.57
O      29.98       2.49       1.97
H      31.07       1.42       5.25
C      30.23       2.24       3.22
C      23.94       8.54      12.12
O      23.52       9.00       9.27
O      25.97       6.55      12.74
O      27.29       5.25      10.87
O      24.86       7.69       7.42
O      26.94       5.60       4.47
O      29.38       3.17       7.92
O      30.69       1.83       6.06
O      28.24       4.28       2.60
C      24.68       7.83      11.09
C      24.43       8.10       9.71
C      25.14       7.40       8.72
C      26.10       6.44       9.10
C      26.37       6.17      10.47
C      25.67       6.86      11.46
C      26.81       5.73       8.10
C      27.42       5.12       7.23
C      28.13       4.41       6.24
C      27.86       4.68       4.87
C      28.55       3.97       3.88
C      29.52       2.99       4.25
C      29.79       2.73       5.63
C      29.09       3.44       6.61
