15

N       3.82       9.64       8.48
N       3.15      10.60       7.85
O       1.55       6.73      13.34
C       1.82       9.89       9.46
C       3.03       9.16       9.50
N       1.95      10.77       8.42
H       0.26       8.43      12.08
C       1.02       8.67      11.34
C       3.27       8.19      10.48
H       4.21       7.65      10.52
C       2.48       6.99      12.54
C       0.78       9.64      10.38
H      -0.16      10.17      10.33
C       2.26       7.96      11.41
O       3.67       6.49      12.62
