12

O       8.60       4.50      24.98
O       7.41       6.44      24.96
C       8.11       5.53      24.41
C       8.28       5.61      22.98
C       8.20       5.56      21.76
C       8.11       5.50      20.42
C       8.04       5.45      19.19
C       8.07       5.47      17.85
C       8.22       5.53      16.63
O       9.54       4.98      14.81
O       8.35       6.93      14.80
C       8.71       5.82      15.32
