19

C      22.06      10.74      13.39
H      23.08       5.87      11.29
H      20.62       9.38      11.59
H      24.75       6.91      12.85
H      22.62      11.59      11.75
C      24.65       9.33      13.99
O      24.57      10.58      14.18
O      25.54       8.55      14.47
C      20.78       6.96      10.39
O      20.99       5.75      10.06
O      19.81       7.70      10.00
C      23.62       8.72      13.09
C      21.76       7.57      11.34
C      22.45       9.43      12.75
C      22.92       6.87      11.70
C      21.53       8.85      11.86
C      23.84       7.44      12.57
O      22.17      11.84      12.58
O      21.58      10.84      14.49
