24

H      18.34      13.01       0.08
H      19.56      15.74      -4.00
N      18.26      11.83      -3.86
N      18.68      13.02      -4.32
N      18.18      11.81      -2.53
H      19.72      16.70      -1.70
N      18.68      17.47       4.32
N      18.26      18.65       3.86
H      18.34      17.48      -0.08
N      18.18      18.67       2.53
H      19.72      13.78       1.70
H      19.56      14.74       4.00
C      18.89      13.82      -3.23
C      18.57      13.05      -2.08
C      18.64      13.59      -0.79
C      19.04      14.92      -0.67
C      19.31      15.16      -3.11
C      19.38      15.67      -1.83
C      18.89      16.67       3.23
C      18.57      17.43       2.08
C      18.64      16.89       0.79
C      19.04      15.56       0.67
C      19.31      15.33       3.11
C      19.38      14.81       1.83
