30

Br      17.13       6.52      22.61
Br      18.85       6.04      19.93
Br      17.93       6.91      16.92
Br      17.42      11.89      24.17
H      16.95       9.21      16.01
Br      17.44      14.09      16.95
H      18.08      13.08      21.95
O      19.26       9.72      24.90
O      18.21       7.74      25.06
O      15.68      10.60      14.71
O      16.48      12.70      14.58
C      16.38      11.55      15.15
C      17.20       9.94      16.78
C      17.57       9.51      18.05
C      17.82       8.63      20.76
C      18.02       7.72      19.65
C      17.80       8.13      18.36
C      17.70       8.27      22.12
C      17.82       9.23      23.16
C      17.47      12.26      17.41
C      17.79      11.89      18.74
C      17.73      10.48      19.09
C      18.11      12.78      19.84
C      17.92      12.37      21.13
C      17.70      11.01      21.48
C      17.78      10.03      20.44
C      17.68      10.59      22.82
C      17.08      11.29      16.45
C      18.43       8.86      24.49
I      19.24      14.57      19.73
