16

C      21.70       8.87      11.74
C      23.90       7.45      12.64
C      24.75       9.33      14.03
O      24.57      10.52      14.44
O      25.73       8.56      14.34
C      20.89       6.92      10.40
H      23.15       5.81      11.45
H      20.83       9.42      11.39
H      24.77       6.91      13.01
Cl      22.22      11.12      13.03
O      21.11       5.71      10.06
O      19.92       7.65      10.02
C      23.73       8.77      13.08
C      21.89       7.55      11.32
C      22.60       9.48      12.61
C      23.00       6.83      11.78
