16

H      26.28      12.83       3.17
H      30.21      10.33       4.86
O      29.84      13.80       6.52
O      25.36      11.03       1.86
O      26.58       9.11       1.88
H      28.60       9.21       3.29
C      30.15      12.74       5.89
C      29.15      12.19       4.92
C      27.34      10.96       3.15
C      28.04      12.90       4.42
C      28.45      10.24       3.62
C      27.14      12.28       3.55
C      26.35      10.32       2.22
C      29.34      10.86       4.49
O      31.24      12.08       6.03
Cl      27.70      14.55       4.79
