48

C       2.75      -4.02      11.90
C       1.53      -4.16      11.05
C       1.59      -4.72       9.76
C       0.45      -4.79       8.97
C      -0.78      -4.30       9.44
C      -0.83      -3.73      10.73
C       0.30      -3.67      11.53
C      -2.03      -4.44       8.66
C      -2.27      -5.58       7.89
O      -8.53       1.09       9.53
O      -9.86      -0.76       9.54
O      -5.45     -10.97       3.82
O      -4.15     -11.93       5.43
C      -4.71     -10.92       4.87
C      -4.44      -9.59       5.48
C      -4.98      -8.42       4.94
C      -4.66      -7.18       5.50
C      -3.79      -7.09       6.60
C      -3.24      -8.28       7.12
C      -3.56      -9.51       6.57
C      -3.51      -5.81       7.27
C      -4.51      -4.84       7.41
C      -8.73      -0.17       9.43
C      -7.57      -1.05       9.13
C      -6.28      -0.53       8.97
C      -5.22      -1.37       8.63
C      -5.42      -2.75       8.45
C      -6.72      -3.26       8.60
C      -7.78      -2.43       8.94
C      -4.30      -3.68       8.17
C      -3.06      -3.49       8.78
H       2.55      -5.08       9.39
H       0.51      -5.21       7.97
H      -1.78      -3.38      11.13
H       0.26      -3.24      12.53
H      -1.49      -6.35       7.82
H      -2.90      -2.61       9.41
O       3.87      -4.41      11.41
H      -5.64      -8.49       4.08
H      -5.09      -6.27       5.07
H      -2.59      -8.24       7.99
H      -3.15     -10.43       6.99
H      -5.49      -5.02       6.96
H      -6.12       0.54       9.10
H      -4.22      -0.95       8.50
H      -6.90      -4.33       8.49
H      -8.78      -2.83       9.07
O       2.57      -3.49      13.05
