16

O      10.18      10.75      14.69
O       9.12       8.73      14.46
C      10.09       9.55      14.27
S      11.12       7.39      12.90
C      13.47       6.68      11.36
C      12.39       9.67      13.09
C      14.63       7.33      10.97
C      12.65       7.53      12.13
C      13.21       8.81      12.31
S      14.73       8.97      11.54
C      11.21       9.04      13.48
C      15.71       6.78      10.15
O      16.68       7.58       9.86
H      13.26       5.65      11.08
O      15.60       5.56       9.79
Cl      12.86      11.26      13.47
