26

C       6.03       0.00      14.43
H       4.82      -1.46      18.71
H       9.29      -1.46      18.47
H       3.96      -1.54      21.04
H      10.15      -1.54      16.13
H       8.62      -0.09      20.20
H       5.49      -0.09      16.98
C       5.79      -0.86      21.92
C       8.32      -0.86      15.25
C       7.12      -0.43      21.69
C       6.98      -0.43      15.49
C       7.59      -0.42      20.36
C       6.52      -0.42      16.81
O       5.23      -0.94      23.15
O       8.88      -0.94      14.03
C       6.79      -0.77      19.27
C       7.32      -0.77      17.90
O       7.65       0.17      23.96
O       6.46       0.17      13.22
C       5.46      -1.16      19.53
C       8.65      -1.16      17.64
O       9.29       0.20      22.42
O       4.82       0.20      14.75
C       4.98      -1.22      20.83
C       9.13      -1.22      16.34
C       8.08       0.00      22.75
