28

H       4.96       8.98      13.15
H       4.88       9.05      15.65
H       9.05       7.97      15.77
H       4.67       9.00      19.95
C       7.05       8.52      13.05
C       5.85       8.79      13.75
C       5.81       8.82      15.13
C       6.97       8.54      15.88
C       8.16       8.22      15.20
C       8.19       8.22      13.81
C       6.93       8.57      17.30
C       6.88       8.59      18.52
C       6.79       8.60      19.93
C       5.55       8.82      20.56
C       5.44       8.79      21.94
C       6.56       8.55      22.76
C       7.80       8.36      22.11
C       7.93       8.38      20.73
Br       9.84       7.69      13.01
Br       3.67       9.12      22.60
C       6.56       8.45      24.27
O       7.69       8.20      24.82
C       6.99       8.59      11.56
O       5.47       8.62      24.89
O       5.91       8.20      11.01
O       7.99       9.08      10.95
H       8.67       8.19      22.74
H       8.90       8.22      20.27
