18

C      17.62      17.94       5.93
C      20.05      17.47       4.61
C      18.83      16.82       2.54
O      19.95      16.66       1.92
O      15.23      18.09       5.97
C      16.34      18.26       6.60
H      16.68      17.31       4.09
C      20.04      17.94       5.93
O      21.31      18.74       7.80
O      17.71      16.66       1.92
H      20.99      17.31       4.09
H      18.83      18.56       7.61
C      21.32      18.26       6.60
C      17.62      17.47       4.61
C      18.83      18.17       6.59
O      16.35      18.74       7.80
O      22.43      18.09       5.97
C      18.83      17.24       3.95
