12

C       2.39      13.79      14.67
O       2.32      14.48      13.63
H       0.77      12.28      13.09
O       2.49      14.23      15.87
H       1.05      10.69      13.80
H       3.14      11.99      13.75
C      -0.14      11.99      14.99
O       0.05      12.58      16.12
O       2.67      11.56      15.74
O      -1.27      11.56      14.60
C       2.38      12.25      14.50
C       1.02      11.76      14.03
