18

H      11.34       3.63      29.24
H      11.94      -1.02      27.60
O       8.87       0.84      26.06
C      10.70       0.72      27.55
O      13.35       3.68      30.61
C      12.58       1.87      29.30
O      14.57       1.75      30.58
C      11.82      -0.00      27.98
C      10.54       2.03      28.04
O       9.90      -1.16      26.38
C      12.76       0.55      28.84
C       9.74       0.08      26.59
O       8.31       2.59      28.30
O       9.55       3.81      26.94
H      13.62      -0.01      29.18
C      13.58       2.48      30.24
C      11.47       2.61      28.89
N       9.36       2.86      27.71
