16

C      11.79       9.22      12.96
C      11.02       9.29      15.62
O      11.67       6.92      17.12
O      11.13      11.59      11.46
C      11.40       6.80      15.88
C      11.40       8.05      15.07
F      10.60       9.37      16.90
C      11.40      10.46      13.51
F      12.21       9.14      11.68
C      11.40      11.72      12.70
F      10.60      11.59      15.46
F      12.21       6.93      13.12
O      11.13       5.72      15.26
O      11.67      12.79      13.32
C      11.02      10.46      14.86
C      11.79       8.05      13.72
