18

O      16.30       8.81       4.59
O      14.60      10.22       4.65
O      14.82      12.06       6.69
O      15.58      14.16       6.20
O      21.18       8.92       1.67
O      22.23      10.95       1.75
S      17.96      13.35       4.82
S      18.82       9.62       3.17
C      15.57      12.88       6.08
C      21.27      10.15       2.01
C      16.78      11.05       4.65
C      19.99      11.97       3.28
N      15.81       9.96       4.65
C      16.61      12.33       5.18
C      20.14      10.68       2.79
C      18.02      10.89       3.99
C      18.77      12.09       3.98
H      20.74      12.75       3.14
