19

H       1.84      12.69       6.73
H       2.84       6.49       4.68
H       1.93       7.52       3.55
H       1.08       6.49       4.72
C       1.99       6.81       7.69
C       2.00      13.32       3.94
C       1.97       8.25       5.58
C       1.91      11.86       6.03
C       1.99       8.09       6.95
C       1.98      12.03       4.67
C       1.99      10.49       6.38
C       2.03       9.63       5.26
C       1.95       7.13       4.58
S       2.04       9.59       7.84
S       2.13      10.54       3.79
O       2.92       6.63       8.55
O       1.06       5.98       7.42
O       2.93      13.49       3.08
O       1.07      14.15       4.21
