28

O      13.21       2.38       5.32
O       6.06       3.35       6.56
O       7.08       5.36       6.52
O      12.94      -4.59       7.63
O      14.63      -4.38       6.18
C      12.30       1.63       5.71
H       7.61       1.62       5.44
C       7.10       4.08       6.46
H       9.84       0.54       5.10
C       8.44       3.41       6.29
C       8.53       2.13       5.74
H      11.74       3.96       6.92
C       9.77       1.52       5.57
H       9.55       5.06       7.16
C      10.95       2.19       5.96
H      14.96      -2.17       5.26
H      14.39       0.24       4.81
C      10.84       3.46       6.55
H      10.86      -0.16       7.24
C       9.61       4.07       6.70
C      13.61      -3.91       6.78
H      11.43      -2.53       7.69
C      13.23      -2.49       6.49
C      14.06      -1.71       5.67
C      13.74      -0.38       5.42
C      12.57       0.19       5.96
C      11.75      -0.60       6.78
C      12.07      -1.93       7.05
