47

C      14.54      14.47       4.32
B      14.89       9.52       5.64
C      14.39      13.00       4.29
C      14.83      12.08       5.29
C      15.47      12.34       6.60
C      13.84      12.25       3.23
C      13.16      12.81       2.02
C      14.00      10.88       3.58
C      13.73       9.71       2.86
C      13.98       8.45       3.42
H      14.98      11.76       7.39
C      13.19       9.81       1.48
H      15.41      13.41       6.83
C      14.06      10.09       0.42
H      16.53      12.03       6.59
C      13.56      10.23      -0.88
H      12.80      13.83       2.23
C      12.19      10.11      -1.11
H      12.33      12.18       1.69
C      11.32       9.84      -0.06
H      13.86      12.88       1.17
C      11.82       9.68       1.24
H      15.13      10.21       0.61
C      13.80       7.13       2.89
H      14.25      10.45      -1.69
C      13.38       6.76       1.50
H      11.79      10.25      -2.12
C      14.11       6.24       3.93
H      10.24       9.77      -0.23
C      13.97       4.77       3.93
H      11.14       9.47       2.07
C      14.51       7.02       5.06
H      13.62       5.70       1.33
C      14.97       6.55       6.40
H      13.89       7.37       0.75
H      12.30       6.91       1.35
N      14.59      10.82       4.85
H      15.65       7.27       6.87
N      14.45       8.33       4.74
H      15.45       5.57       6.31
O      14.46      15.07       3.19
H      14.11       6.42       7.07
O      14.74      15.04       5.45
O      14.06       4.15       2.82
O      13.77       4.22       5.06
F      16.28       9.43       5.90
F      14.16       9.50       6.85
