26

H       9.26       8.61      10.36
H       8.94      13.55      10.34
H       5.28      13.12       7.35
H       5.38       8.59       7.54
H      10.77       8.89      12.01
H      10.44      13.49      12.02
C       7.46       8.09       8.45
C       7.26      13.81       8.30
C       7.33       9.54       8.65
C       8.27      10.30       9.45
C       6.25      10.19       8.03
C       9.19       9.70      10.33
C       9.98      10.43      11.19
C       7.22      12.37       8.57
C       6.20      11.62       7.97
C       8.20      11.73       9.42
C       9.02      12.46      10.31
C       9.89      11.85      11.19
O       6.41       7.45       8.02
O       6.16      14.39       7.91
O       8.36      14.45       8.41
O       8.58       7.50       8.61
O       5.19      12.13       7.26
O       5.24       9.57       7.39
O      10.84       9.86      12.09
O      10.66      12.54      12.09
