25

N       6.87       7.41       2.39
H       3.88       3.90       0.94
N       5.81       5.39       2.45
C       3.71       4.70       0.23
H       2.26       3.66      -1.00
N       4.22       6.98      -0.42
C       2.81       4.58      -0.83
H       1.94       5.64      -2.51
C       2.63       5.68      -1.67
N       9.33       5.01       6.19
H       3.23       7.74      -2.07
C       3.34       6.86      -1.44
H       6.44       4.07       4.70
C       7.56       5.84       4.15
H       8.01       3.43       6.50
C       7.31       4.69       4.91
H      10.45       6.71       5.73
C       8.19       4.32       5.91
H       8.91       7.53       3.97
C       9.54       6.16       5.49
C       5.36       6.15       1.44
C       8.68       6.61       4.51
C       6.73       6.21       3.02
N       5.98       7.37       1.39
C       4.39       5.90       0.41
