58

C       2.47      23.78      13.14
C       3.97      27.16      13.40
C       2.46      23.52      11.79
H       1.94      23.08      13.79
C       4.06      27.38      14.75
H       4.44      27.89      12.74
H       0.97      22.02      12.07
H       1.16      22.51      10.38
H       2.34      21.43      11.13
H       5.43      28.98      14.37
H       4.15      29.45      15.49
H       5.47      28.41      16.05
C       1.70      22.31      11.31
C       4.81      28.62      15.20
H       2.47      22.00      15.50
H       2.49      28.43      11.83
H       3.94      28.92      10.93
C       3.01      28.35      10.86
H       2.39      28.86      10.11
C       3.45      22.50      15.55
C       3.37      25.64      19.44
C       3.98      25.03       7.21
H       3.91      22.41      14.56
H       4.06      21.92      16.25
C       3.52      22.82       9.01
C       3.39      27.95      17.70
H       3.68      24.72      19.96
H       4.12      25.95       6.65
H       4.94      24.49       7.18
H       3.25      24.40       6.68
O       2.29      22.59      18.71
O       4.47      28.16       7.70
H       4.04      26.45      19.79
H       2.35      25.88      19.78
H       4.34      22.79       8.28
H       3.79      22.13       9.82
H       2.63      22.42       8.50
O       2.21      28.17       7.73
O       4.54      22.52      18.65
H       2.71      27.91      18.56
H       4.34      28.35      18.07
H       2.97      28.67      16.99
C       3.42      23.01      18.32
C       3.34      27.73       8.11
C       3.36      26.61       9.11
C       3.42      24.18      17.38
C       3.33      24.23       9.52
C       3.51      26.57      17.09
C       3.56      25.29       8.64
C       3.43      25.47      17.94
C       3.22      26.91      10.46
C       3.36      23.94      16.01
C       3.22      25.83      11.39
C       3.33      25.06      15.13
C       3.02      24.50      10.88
C       3.60      26.37      15.67
C       3.38      26.00      12.83
C       3.09      24.93      13.71
