48

H       2.22      15.11      22.46
H       1.86      18.80      20.31
H       2.55      15.13      18.19
O       3.21      20.75      13.70
O       1.19      19.88      13.19
O       3.36       8.48      19.83
O       1.35       8.44      20.89
C       2.20      20.02      13.95
O       3.04      19.79      27.47
C       2.35       9.02      20.37
C       2.04      19.96      26.70
O       1.03      20.69      26.90
C       2.09      17.05      21.56
C       2.21      15.65      21.53
C       2.33      14.92      20.33
C       2.37      15.66      19.12
C       2.20      17.06      19.09
C       2.04      17.73      20.32
C       2.96      11.25      21.40
C       3.03      12.66      21.34
C       2.36      13.42      20.34
C       1.67      12.64      19.37
C       1.72      11.23      19.35
C       2.34      10.53      20.38
C       1.39      17.30      24.03
C       1.45      17.95      25.27
C       2.06      19.20      25.39
C       2.68      19.75      24.27
C       2.74      19.02      23.06
C       2.06      17.79      22.87
C       2.91      19.03      17.60
C       2.86      19.77      16.40
C       2.20      19.27      15.25
C       1.55      18.03      15.39
C       1.50      17.37      16.64
C       2.20      17.81      17.79
Cl       1.03      10.34      18.05
Cl       3.64      10.38      22.71
Cl       0.70      13.35      18.16
Cl       4.01      13.39      22.53
Cl       0.76      17.25      26.68
Cl       0.41      15.89      23.98
Cl       3.35      21.32      24.39
Cl       3.71      19.72      21.84
Cl       3.90      19.65      18.84
Cl       3.58      21.33      16.40
Cl       0.50      15.98      16.72
Cl       0.83      17.24      14.04
