22

H      13.95       5.72      12.31
H      16.30       6.28       9.69
H      16.00       5.43      11.22
H      16.90       6.97      11.21
H      13.05       9.91       9.85
H      10.70       9.37      12.46
H      10.10       8.65      10.96
H      10.98      10.20      10.91
C      11.50       6.65      12.80
C      12.52       7.28      11.91
C      13.76       6.65      11.76
C      14.76       7.16      10.93
C      16.06       6.42      10.76
C      14.48       8.36      10.25
C      13.24       8.99      10.39
C      12.24       8.48      11.23
C      10.94       9.21      11.40
C      15.50       9.01       9.38
O      11.85       6.42      14.01
O      10.37       6.38      12.27
O      15.16       9.31       8.19
O      16.64       9.25       9.92
