34

H      11.93       4.63       1.52
H       8.43      12.05       2.94
H       8.42      10.21      -1.46
H      12.33       3.25      -0.47
H       8.12      11.63       0.50
H      11.99       2.82      -2.91
H       9.75       6.44      -3.28
H      10.97       6.60       2.58
H       9.24       8.15      -2.50
H      10.02       8.10       3.44
C       9.34       8.28      -1.42
C       8.88       9.43      -0.84
C       8.99       9.65       0.56
C       9.58       8.64       1.38
C       8.56      10.87       1.15
C       8.71      11.10       2.49
C       9.63       8.86       2.77
C      11.58       3.71      -2.43
C      10.31       5.77      -2.63
C      10.50       6.06      -1.27
C       9.44      10.34       4.77
C      10.58       4.36      -4.66
C      11.22       5.11      -0.48
C      10.83       4.62      -3.21
C       9.23      10.07       3.32
C      11.76       3.95      -1.09
C       9.97       7.26      -0.65
C      10.11       7.44       0.75
C      10.83       6.46       1.51
C      11.37       5.35       0.92
O      10.10      11.40       5.05
O      11.16       3.35      -5.18
O       8.96       9.51       5.62
O       9.79       5.17      -5.25
