34

H      10.29       6.90      11.09
H      14.42       5.74      11.43
H      14.13       7.27      18.08
H      10.00       6.10      17.84
H       9.85       8.11      14.40
H       9.00       7.10      13.23
H      14.14       5.10      14.88
H      15.39       5.66      13.79
H      14.60       8.12      14.67
H      15.44       7.20      15.92
H      10.31       5.09      14.45
H       9.05       5.74      15.49
C      11.99       6.73      19.58
C      12.40       6.06       9.65
C       9.87       7.14      13.89
C      14.48       5.97      14.29
C      14.57       7.19      15.26
C       9.96       6.01      14.97
C      11.18       6.78      11.71
C      11.12       6.97      13.08
C      13.51       6.12      11.90
C      13.44       6.30      13.28
C      13.25       7.08      17.46
C      13.32       7.11      16.07
C      10.91       6.41      17.33
C      11.00       6.43      15.94
C      12.38       6.36      11.11
C      12.26       6.77      13.86
C      12.04       6.76      18.09
C      12.18       6.83      15.32
O      10.83       6.70      20.13
O      11.26       5.92       9.09
O      13.55       5.93       9.10
O      13.12       6.75      20.18
