13

C      14.88      10.30       5.29
C      13.39      10.18       5.02
H      16.93      10.03       6.97
H      16.46      11.30       8.13
H      15.37      10.69       4.39
H      15.28       9.29       5.43
O      12.56      10.73       5.83
O      14.07       9.43       8.21
O      16.00       8.79       9.14
N      15.18      11.15       6.47
O      13.02       9.52       4.01
C      15.35       9.50       8.33
C      16.07      10.52       7.45
