17

C      11.99      13.76      18.89
C       9.87      12.44      18.49
O       8.89      11.81      19.00
C      12.89      14.33      19.79
C      11.57      13.51      21.67
C      10.67      12.95      20.78
O      10.07      12.57      17.21
O      13.46      14.68      23.35
O      14.66      15.45      21.57
C      13.68      14.82      22.10
H      11.44      13.43      22.74
H      13.76      14.87      19.41
H       9.80      12.41      21.14
O      12.24      13.91      17.57
H      11.49      13.44      17.10
C      10.86      13.06      19.39
C      12.69      14.21      21.16
