26

C      11.50      23.03      18.80
C      12.52      24.20      18.77
C      13.40      24.17      20.04
C      14.14      22.82      20.09
C      13.12      21.65      20.13
C      11.68      22.21      20.10
C      11.48      23.13      21.31
C      12.50      24.30      21.28
O      10.87      20.12      19.25
O       9.64      21.20      20.83
H      10.47      23.41      18.76
H      11.64      22.37      17.94
H      13.17      24.14      17.89
H      11.99      25.17      18.72
H      14.80      22.74      19.21
H      14.79      22.80      20.98
H      13.26      20.98      19.28
H      13.26      21.05      21.04
O      15.29      25.22      19.03
H      10.45      23.51      21.30
O      14.30      26.26      20.79
H      13.12      24.30      22.18
H      11.98      25.27      21.26
H      11.58      22.55      22.23
C      10.66      21.08      20.07
C      14.41      25.31      19.95
