16

S      21.91      13.46      18.28
S      21.12      13.65      22.38
C      24.32      12.15      18.28
C      23.09      12.69      20.49
C      19.92      14.41      20.17
C      18.69      14.95      22.34
C      19.79      14.40      21.55
C      21.13      13.79      19.78
C      21.88      13.32      20.88
C      23.24      12.69      19.11
O      25.27      11.53      18.87
O      24.21      12.35      17.02
Br      24.26      11.98      21.77
H      19.17      14.84      19.51
O      17.68      15.42      21.70
O      18.83      14.90      23.61
