20

N       6.40       3.00       1.56
N       8.57      -3.00      -1.56
C       6.99       3.03       0.34
C       7.99      -3.03      -0.34
C       7.44       1.88      -0.29
C       7.54      -1.88       0.29
C       7.29       0.63       0.33
H       7.06       4.00      -0.15
C       7.69      -0.63      -0.33
H       7.92      -4.00       0.15
H       7.86       1.98      -1.30
C       6.71       0.62       1.62
C       8.27      -0.62      -1.62
H       7.12      -1.98       1.30
H       6.59      -0.30       2.19
C       6.29       1.81       2.18
H       8.39       0.30      -2.19
C       8.69      -1.81      -2.18
H       5.82       1.84       3.17
H       9.15      -1.84      -3.17
