12

C       3.59       2.42       3.92
C       3.08      -2.39      -3.95
O       2.47       2.79       4.41
O       4.20      -2.78      -4.40
C       3.12      -1.63      -2.74
C       3.52       1.67       2.69
C       3.27      -0.29      -0.55
C       3.19      -0.99      -1.69
C       3.45       1.04       1.64
O       1.93      -2.60      -4.47
O       4.75       2.62       4.40
C       3.36       0.35       0.50
