14

H       2.83       2.32       3.47
H       2.81       3.64       5.55
H      -0.25       2.32       3.60
H      -0.27       3.68       5.33
C       0.83       1.33       2.00
O      -0.34       4.99       7.45
C       0.79       4.68       6.94
C       1.86       2.58       3.89
C       0.76       2.12       3.25
C       1.84       3.39       5.10
C       0.74       3.87       5.71
O       1.93       4.99       7.42
O       1.97       1.02       1.53
O      -0.30       1.04       1.49
