17

H       8.36       5.80       4.85
H       8.35       7.31       5.81
H      10.87       7.34       5.88
C      10.35       5.50       6.95
C      10.37       4.40       8.91
C       8.94       4.38       8.91
C       8.95       5.52       6.96
C       8.83       6.32       5.69
C      10.43       6.35       5.67
C      11.04       3.81      10.03
C       8.28       3.68       9.96
C      11.03       5.79       4.47
N      11.09       4.98       7.91
N       8.22       4.98       7.93
N      11.48       3.32      11.00
N       7.85       3.04      10.84
N      11.43       5.40       3.45
