26

H      -3.50       6.08      10.62
H       3.39       9.86      15.18
H       1.84       6.71      11.99
H      -1.95       9.23      13.81
C      -0.05       7.93      15.77
C      -0.07       8.02      10.03
C      -0.14       6.70      13.30
C       0.03       9.25      12.50
C       0.99       7.27      12.40
C      -1.10       8.68      13.40
C      -0.06       8.03      11.52
C      -0.05       7.92      14.28
C      -1.23       7.45      12.43
C       1.12       8.49      13.37
C      -2.54       6.84      12.07
C       2.43       9.10      13.73
O      -0.40       9.10       9.46
O      -0.38       9.03      16.32
O       0.27       6.92       9.48
O       0.29       6.84      16.35
O      -3.42       6.63      12.89
O      -2.63       6.53      10.75
O       3.31       9.32      12.91
O       2.52       9.42      15.05
F      -0.24       5.40      13.67
F       0.13      10.55      12.13
