33

C       3.88       3.31       7.26
C       1.85       1.87       7.68
H       2.61       3.97       5.59
C       4.10       0.79       7.42
C       1.64       1.59       6.18
C       2.55       1.65       2.77
C       3.36       2.05       7.99
C       3.44       3.28       5.78
C       2.95       1.86       5.40
H       3.50       4.21       7.77
O       1.29       2.14       0.88
O       5.21       1.84      12.37
H       1.46       1.04       8.29
H       4.97       3.35       7.35
H       1.32       2.77       8.00
H       0.85       2.24       5.77
O       3.64      -0.44       5.33
H       1.35       0.55       6.00
O       5.42       0.64       7.88
H       3.53      -0.09       7.76
O       5.31       1.18       5.38
H       4.28      -1.10       5.67
O       2.52       0.22       0.94
H       6.01       0.98       7.17
O       4.10       3.83      12.39
H       5.28       1.15       4.40
H       4.27       3.58       5.12
C       2.73       1.75       3.97
C       3.61       2.19       9.41
C       3.85       2.38      10.59
C       2.11       1.33       1.44
C       4.40       2.70      11.87
C       4.02       0.82       5.85
