35

H      25.79      18.90       8.28
H      24.37      20.67       8.04
H      22.10      20.99       7.12
H      23.64      20.67       3.12
H      25.93      20.31       4.03
H      29.90      19.06       8.39
H      31.32      18.71       6.64
H      33.60      19.48       6.03
H      32.06      23.36       5.04
H      29.77      22.62       5.68
C      27.85      20.56       6.12
N      27.85      18.94       8.39
H      27.85      21.19       5.24
O      20.39      20.59       5.35
O      21.16      21.23       3.32
O      35.31      21.27       5.84
O      34.53      22.99       4.58
C      26.69      19.30       7.81
C      26.63      20.11       6.67
C      21.32      20.89       4.54
C      25.31      20.44       6.10
C      24.22      20.65       6.96
C      22.94      20.83       6.45
C      22.72      20.81       5.06
C      23.81      20.66       4.20
C      25.09      20.47       4.71
C      29.00      19.37       7.86
C      29.06      20.18       6.72
C      34.38      21.95       5.29
C      30.38      20.62       6.23
C      31.48      19.74       6.31
C      32.75      20.16       5.97
C      32.98      21.48       5.54
C      31.88      22.34       5.40
C      30.60      21.92       5.74
