32

H       6.26       9.01       4.62
H       6.31       8.91       2.12
H       2.21       7.56       2.15
H       6.36       7.81      -2.13
H       2.44       9.23      -4.81
H       2.29       9.23      -2.31
H       1.81       7.83       5.72
H       1.10       7.34       4.22
H       6.90       7.86      -5.71
H       7.59       7.59      -4.12
C       4.27       8.55       6.26
C       4.40       8.42      -6.36
C       4.23       8.36       4.80
C       5.39       8.67       4.06
C       5.42       8.62       2.68
C       4.25       8.23       1.98
C       3.10       7.87       2.70
C       3.06       7.92       4.11
C       4.23       8.28       0.56
C       4.25       8.38      -0.66
C       4.31       8.47      -2.07
C       5.50       8.12      -2.72
C       5.61       8.14      -4.13
C       4.45       8.50      -4.89
C       3.28       8.91      -4.20
C       3.19       8.90      -2.83
N       1.93       7.51       4.76
N       6.78       7.76      -4.70
O       5.41       8.59       6.84
O       5.52       8.20      -6.97
O       3.27       8.51      -6.95
O       3.14       8.71       6.86
