32

H      11.01      18.62       5.24
H       6.70      18.65       5.03
H      10.46      18.61      14.63
H       6.15      18.61      14.38
O       7.05      18.60      16.67
O       9.33      18.60      16.77
O      10.06      18.57       2.94
O       7.79      18.74       2.89
O       6.31      18.63       7.59
O      11.15      18.62       7.83
O       6.03      18.61      11.79
O      10.87      18.62      12.07
H       6.43      18.62       8.56
H      10.94      18.61       8.78
H       6.25      18.62      10.84
H      10.76      18.62      11.10
C       8.22      18.60      16.14
C       8.91      18.65       3.49
C       8.86      18.64       4.99
C      10.05      18.62       5.74
C       9.98      18.62       7.13
C       8.72      18.62       7.80
C       7.54      18.63       7.01
C       7.61      18.64       5.62
C       8.64      18.62       9.21
C       8.55      18.62      10.43
C       8.46      18.61      11.84
C       9.64      18.61      12.64
C       9.55      18.61      14.03
C       8.30      18.61      14.65
C       7.12      18.61      13.89
C       7.20      18.61      12.50
