30

Cl       3.12      18.60      15.96
Cl       3.16      21.34      17.42
Cl       1.03      16.24      20.30
Cl       0.71      18.95      21.70
H       2.00      22.23      19.39
H       2.00      20.98      22.19
Cl       3.16      21.87      24.16
Cl       3.12      24.61      25.61
Cl       0.71      24.25      19.87
Cl       1.03      26.96      21.28
C       2.11      26.96      24.06
C       2.11      16.24      17.52
O       1.16      27.22      24.86
O       3.08      27.73      23.78
O       1.16      15.99      16.72
O       3.08      15.48      17.80
C       2.07      17.58      18.22
C       1.56      17.68      19.52
C       1.48      18.92      20.16
C       1.97      20.10      19.55
C       2.50      19.97      18.24
C       2.52      18.73      17.57
C       1.94      21.44      20.13
C       1.94      21.77      21.45
C       2.50      23.24      23.34
C       1.97      23.11      22.03
C       1.48      24.29      21.42
C       1.56      25.53      22.06
C       2.07      25.63      23.36
C       2.52      24.48      24.01
