24

C       9.04      13.93       1.04
O      13.71      13.72       3.34
C       8.10      14.04       0.02
H       9.11      12.97       6.71
O       9.80      14.48      -1.57
H      11.63      12.97       6.64
C       6.75      13.88       0.34
O       7.63      14.27      -2.26
H      10.09      14.06       0.78
C       6.39      13.62       1.66
C      13.20      13.34       4.43
H      11.43      13.69       2.44
C       8.58      14.30      -1.41
H       6.00      13.95      -0.45
H       5.34      13.50       1.95
C       9.65      13.12       5.78
C      11.03      13.12       5.74
C      11.69      13.32       4.52
N       8.90      13.29       4.67
C      10.92      13.52       3.38
N       7.30      13.50       2.64
C       9.53      13.49       3.47
O      13.83      13.00       5.48
C       8.63      13.65       2.34
