27

C      21.72      11.78      19.90
H      21.98      10.79      20.29
C      20.48      12.00      19.31
H      19.74      11.21      19.22
C      20.18      13.27      18.83
H      20.83      15.32      18.56
O      24.22      11.38      21.06
C      21.09      14.33      18.94
H      23.06      14.89      19.62
O      24.83      13.52      20.63
C      22.33      14.09      19.53
H      16.79      14.65      17.50
O      18.91      13.47      18.28
C      18.81      14.08      17.05
C      17.58      14.67      16.75
H      16.44      15.74      15.26
O      17.06      16.35      12.93
C      17.39      15.27      15.50
H      20.43      14.66      14.12
O      19.26      16.04      12.48
H      20.79      13.58      16.33
C      18.42      15.28      14.55
C      19.64      14.67      14.87
C      19.84      14.06      16.10
C      18.23      15.94      13.22
C      24.00      12.55      20.62
C      22.66      12.81      20.01
