20

C       3.02      10.57       0.68
C       4.41      10.54       0.67
C       5.15      11.48       1.41
H       9.35       9.85       0.12
H       6.87       9.76       0.08
H       6.90      13.18       2.75
H       9.37      13.12       2.65
C       4.40      12.42       2.14
C       3.01      12.39       2.09
H       2.43       9.85       0.12
H       4.90       9.76       0.08
H       4.88      13.18       2.75
H       2.41      13.12       2.65
N       9.45      11.49       1.37
N       2.33      11.49       1.37
C       8.75      10.57       0.68
C       7.36      10.54       0.67
C       6.63      11.48       1.41
C       7.38      12.42       2.14
C       8.77      12.39       2.09
