20

C       2.09      21.90      16.42
C       2.09      28.47      12.66
C       2.04      24.49      16.20
C       2.04      25.89      12.89
C       2.04      23.20      15.68
C       2.04      27.18      13.40
C       2.06      24.90      13.90
C       2.06      25.47      15.18
S       2.03      23.18      13.95
S       2.03      27.19      15.13
N       1.95      24.84      17.60
N       1.95      25.54      11.49
O       1.15      21.08      16.17
O       3.08      21.72      17.19
O       1.15      29.30      12.91
O       3.08      28.66      11.89
O       2.13      26.05      17.86
O       1.69      23.95      18.42
O       2.13      24.33      11.23
O       1.69      26.42      10.66
