20

S       7.68       5.09      18.27
S       7.24       4.36      22.36
H       7.68       2.05      19.54
S       7.11       7.85      21.56
H       8.99       8.40      22.37
C       7.61       7.83      18.18
O       7.46       7.63      16.92
O       7.83       8.94      18.76
C       7.39       1.59      22.35
O       7.20       1.74      23.60
O       7.56       0.49      21.73
C       7.40       6.53      20.42
C       7.57       2.92      20.18
C       7.55       6.63      19.04
C       7.41       2.82      21.55
C       7.56       4.27      19.78
C       7.40       5.18      20.85
O       8.48       8.70      21.59
O       6.11       8.73      21.01
O       6.93       7.24      22.85
