20

H       6.77      -0.72       4.11
H       6.47       3.91       1.45
H       5.32       4.98       3.36
H       6.91       1.06       6.63
H       5.42       0.30       5.98
H       8.24       0.07       4.73
C       7.74       1.43       1.42
C       6.98       2.10       2.51
C       6.39       3.38       2.39
C       4.78       3.89       5.84
C       5.73       3.98       3.47
C       5.55       3.31       4.70
C       6.84       1.47       3.74
C       6.11       2.04       4.79
C       6.33       0.85       5.71
C       7.17       0.22       4.53
O       8.61       0.59       1.80
O       5.08       5.09       6.21
O       7.47       1.72       0.19
O       3.90       3.15       6.37
