10

C       5.74       5.23       5.58
C       5.94       1.68       1.73
O       4.56       6.51       7.10
C       5.71       6.18       6.67
O       6.85       6.57       7.09
O       4.81       1.29       1.31
O       7.08       1.30       1.32
C       5.92       2.66       2.79
C       5.86       3.50       3.68
C       5.80       4.41       4.68
