16

C       6.84       9.82       3.42
O       5.57      13.67       6.43
C       5.69      10.09       4.17
C       5.62      11.28       4.91
H       8.65      12.62       4.16
O       3.50       9.53       4.86
C       4.52       9.14       4.14
O       4.55       8.11       3.44
H       8.81      10.49       2.85
C       6.57      13.45       5.69
H       6.88       8.89       2.85
C       6.68      12.19       4.90
H       4.73      11.50       5.49
C       7.83      11.90       4.15
C       7.91      10.72       3.42
O       7.57      14.27       5.57
