30

H       8.99       6.88      12.40
H       9.01       7.10      14.90
H      13.19       6.03      14.91
H       8.17       7.28      18.60
H      12.37       6.27      18.62
H      12.39       6.48      21.11
H      13.24       5.74      11.38
H       8.12       7.56      22.14
C      10.37       7.14      22.72
C      11.00       6.20      10.79
C      11.07       6.36      12.25
C       9.91       6.72      12.96
C       9.91       6.83      14.34
C      11.11       6.56      15.04
C      12.28       6.23      14.35
C      12.28       6.12      12.96
C       9.09       7.10      19.16
C      10.27       6.78      18.47
C      11.47       6.53      19.17
C      11.47       6.64      20.55
C      10.30       6.98      21.26
C       9.09       7.20      20.55
N      11.24       6.60      16.45
N      10.14       6.74      17.06
O      11.48       7.01      23.32
O      12.09       5.83      10.18
O       9.89       6.39      10.19
O       9.26       7.45      23.33
O      13.43       5.77      12.36
O       7.93       7.53      21.16
