26

O       4.49       5.97       1.00
O       4.72       8.23       1.01
O      -4.46       7.95       1.09
O      -4.67       5.69       0.95
O      -0.92      10.38       0.30
O       0.76      10.98       1.58
O       0.96       3.56       0.26
O      -0.72       2.95       1.55
H      -2.17       8.72       0.98
H      -2.57       4.45       1.02
H       2.20       5.22       0.94
H       2.62       9.48       1.05
C       4.04       7.16       1.00
C      -3.99       6.76       1.02
C      -1.69       7.74       0.98
C      -1.93       5.33       1.00
C      -0.56       5.19       0.96
C       0.32       6.31       0.94
C       1.73       6.19       0.96
C       1.97       8.60       1.01
C       0.61       8.74       0.98
C      -0.28       7.63       0.95
C      -2.50       6.62       1.01
C       2.54       7.31       1.00
N       0.10      10.14       0.96
N      -0.06       3.80       0.92
