20

C      30.78      17.31      27.67
C      29.69      20.38      29.26
C      31.90      17.97      27.16
C      28.58      19.72      29.76
C      30.49      19.50      28.50
C      29.97      18.18      28.44
S      31.96      19.63      27.63
S      28.50      18.04      29.32
H      29.89      21.44      29.44
S      30.37      15.58      27.53
H      29.10      15.47      25.83
C      32.99      17.48      26.31
C      27.51      20.29      30.58
O      33.99      18.27      26.19
O      32.85      16.34      25.77
O      26.59      19.47      30.94
O      27.58      21.54      30.86
O      30.07      15.37      25.96
O      31.52      14.78      27.84
O      29.12      15.42      28.24
