34

H       2.66       6.90       6.72
H      -2.30       7.25       6.38
H       0.60      11.11      11.24
H       2.22      11.09      10.43
H       2.08      10.73      12.18
H      -0.65       8.31      12.33
H      -2.21       7.83      11.56
H      -2.14       9.29      12.61
C       3.03       8.26       8.88
C      -2.78       8.45       8.62
C       1.58       6.98       6.68
C      -1.21       7.21       6.47
C       0.91       6.40       5.62
C      -0.50       6.52       5.52
C      -0.56       7.78       7.60
C       0.87       7.67       7.69
C       1.53       8.25       8.81
C      -1.28       8.43       8.64
C       0.81       8.84       9.83
C      -0.61       8.94       9.74
C       1.59      10.64      11.21
C      -1.59       8.68      11.88
N       1.72       5.76       4.58
N      -1.26       5.79       4.50
O       3.61       7.14       8.94
O      -3.34       7.31       8.65
O       3.57       9.41       8.83
O      -3.35       9.58       8.58
O       1.47       9.22      10.97
O      -1.31       9.55      10.76
O       2.64       5.02       4.96
O       1.46       6.03       3.40
O      -2.27       6.34       4.03
O      -0.87       4.65       4.21
