28

O      18.14      28.41      12.06
O      17.26      27.62      10.11
O       5.73      23.95      16.77
O       6.61      24.74      18.72
H       7.19      24.22      14.83
H       9.27      24.88      13.62
H      10.95      26.31      17.33
H       8.86      25.65      18.52
H      12.92      26.04      11.51
H      15.01      26.71      10.31
H      16.69      28.14      14.00
H      14.60      27.48      15.21
C      17.22      27.86      11.37
C       6.66      24.50      17.47
C       7.90      24.89      16.75
C       8.02      24.68      15.37
C       9.17      25.04      14.69
C      10.25      25.64      15.39
C      10.12      25.86      16.79
C       8.96      25.48      17.45
C      11.43      26.02      14.71
C      12.45      26.34      14.12
C      13.63      26.72      13.44
C      13.75      26.50      12.05
C      14.91      26.87      11.38
C      15.97      27.46      12.09
C      15.85      27.68      13.47
C      14.70      27.31      14.14
