22

H       9.25       8.90      10.31
H       9.34      13.86       9.88
C       7.55       8.35       8.48
C       7.50      14.19       8.20
C       7.53       9.85       8.41
C       8.40      10.61       9.25
C       6.71      10.51       7.50
C       9.25       9.99      10.20
C      10.12      10.73      10.98
C       7.52      12.69       8.24
C       6.69      11.93       7.43
C       8.41      12.04       9.15
C       9.30      12.78       9.97
C      10.15      12.14      10.85
Br       5.56      12.79       6.17
Br       5.68       9.50       6.25
Br      11.25       9.83      12.20
Br      11.37      13.21      11.84
O       6.44       7.78       8.73
O       6.41      14.76       8.50
O       8.60      14.77       7.94
O       8.67       7.78       8.27
