28

Cl       8.31      11.96      10.47
Cl      15.44      20.69       5.09
Cl      15.96      17.67       4.86
Cl       7.79      14.97      10.70
H      13.58      14.14       7.84
H      10.17      18.51       7.72
C      14.82      18.24       6.00
C       8.92      14.40       9.56
C      14.59      19.62       6.10
C       9.15      13.03       9.46
C      12.87      19.31       7.60
C      10.88      13.33       7.95
C      12.84      17.90       7.38
C      10.90      14.74       8.18
C      14.02      17.36       6.77
C       9.73      15.29       8.79
C      11.76      17.02       7.76
C      11.98      15.62       7.79
C      13.31      15.15       7.56
C      10.44      17.49       7.99
C      14.28      15.97       7.04
C       9.47      16.68       8.52
Br      16.02      15.22       6.94
Br       7.73      17.43       8.62
Br      11.95      12.59       6.58
Br      11.80      20.06       8.97
N      13.72      20.14       7.00
N      10.02      12.50       8.55
