40

H      16.21      11.89      21.65
H      19.34       8.92      21.59
C      16.17      10.52      19.93
C      18.17       8.94      19.80
H      15.72      11.38      19.43
C      18.44      11.37      19.31
H      19.35      11.20      18.73
C      18.78      11.57      20.81
H      15.47       9.69      19.84
H      17.95      12.26      18.90
C      18.56      10.94      24.29
H      18.57      12.60      21.12
C      17.47      10.17      19.14
H      19.85      11.38      20.99
C      16.46      10.84      21.41
H      17.65       8.47      21.87
C      17.96      10.61      21.70
H      19.77       9.25      17.36
C      19.64       8.32      17.93
C      20.87       7.44      17.83
H      18.75       7.80      17.55
H      21.72       7.92      18.35
H      20.68       6.50      18.37
C      21.25       7.15      16.38
Br      16.93       7.34      19.51
H      20.43       6.66      15.84
H      22.13       6.51      16.31
H      21.49       8.08      15.83
H      15.86      10.21      22.08
O      16.24       8.12      15.03
O      18.57      12.26      26.19
C      18.28      10.82      23.11
O      19.44       8.64      19.33
O      19.87      10.39      26.14
C      17.08       9.95      17.76
O      15.13      10.10      14.92
C      16.64       9.73      16.65
C      19.02      11.20      25.63
C      15.97       9.30      15.45
C      18.31       9.15      21.32
