44

O       4.05       6.90      12.32
O       1.88       7.14      25.51
O       4.93       8.98      12.70
H       5.55       7.83      17.67
O       3.56       5.61      25.59
H       4.70       5.25      23.56
H       7.02       8.52      16.08
H       7.76       6.68      14.66
H       8.15       8.28      13.93
H       6.77       7.37      13.36
H       6.20       5.02      21.56
H       5.65       5.57      20.03
H       0.77       8.57      20.98
H       1.74       8.19      19.57
H       1.06       6.79      17.59
H      -0.79       6.61      16.23
H       2.20       7.08      14.10
H       0.25       5.95      14.95
H       0.03       7.71      15.09
H       1.27       9.29      22.86
H       1.18       8.29      24.23
C       4.43       7.86      13.08
C       2.83       6.46      24.96
C       3.09       6.67      23.52
C       2.30       7.54      22.73
C       2.51       7.57      21.33
C       3.59       6.85      20.74
C       4.42       6.03      21.57
C       4.13       5.93      22.93
C       4.83       7.69      16.86
C       5.21       7.88      15.53
C       3.51       7.39      17.23
C       4.21       7.66      14.54
C       2.91       7.28      14.90
C       2.51       7.18      16.24
C       7.34       7.62      14.26
C       0.14       6.77      15.67
N       3.94       6.87      19.41
N       1.24       6.83      16.60
N       1.25       8.33      23.22
N       3.08       7.29      18.55
N       6.50       8.32      15.23
N       5.42       5.29      20.98
N       1.67       8.36      20.57
