42

H       7.95       5.99       4.68
H       5.67       7.77      -4.29
H       9.76       6.51      -4.31
H       3.89       7.22       4.12
H       8.32       6.00       0.21
H       5.29       5.87      -0.22
H       5.44       6.98      -1.95
H       8.09       5.35       2.28
H       3.85       8.94       1.46
H       4.64       8.14       0.09
H       2.86       8.30       0.13
H       3.48       5.96       0.76
H       2.76       6.78       2.14
H      11.19       7.23      -1.84
H      10.32       7.00      -0.32
H      11.72       5.97      -0.70
H       9.60       4.69      -1.12
H      10.48       4.95      -2.62
C       5.82       7.11       5.97
C       7.91       7.77      -5.81
C       5.92       6.68       4.54
C       7.75       7.23      -4.43
C       7.10       6.14       4.02
C       6.51       7.31      -3.77
C       7.17       5.79       2.68
C       6.39       6.85      -2.47
C       6.08       6.01       1.80
C       7.48       6.28      -1.78
C       4.86       6.49       2.34
C       8.71       6.12      -2.47
C       4.81       6.81       3.70
C       8.82       6.61      -3.77
C       6.22       5.89       0.35
C       7.38       5.99      -0.35
C       3.65       6.77       1.48
C       3.75       8.12       0.74
C       9.92       5.47      -1.83
C      10.84       6.47      -1.13
O       4.65       7.14       6.48
O       9.09       7.77      -6.29
O       6.90       7.43       6.57
O       6.86       8.17      -6.42
