48

H       7.67       3.67      11.07
H       7.84       4.72       6.88
H      12.28       7.11       7.14
H      14.11       8.25       8.96
H      12.88       6.79      11.06
H      14.74       4.70      10.64
C      13.19       4.59       5.52
C      13.80       4.17       4.19
C      13.79       2.26       8.78
C      13.16       0.90       8.98
C      19.31       6.28      10.99
N       6.29       3.57       9.47
N       6.35       3.90       8.13
H      19.68       5.34       6.42
N      20.98       5.90       9.31
N      21.08       5.63       8.01
H      12.54       5.47       5.40
H      12.59       3.78       5.96
H      14.44       3.29       4.31
O      14.28       4.93       6.41
O      12.73       3.25       8.84
H      13.00       3.93       3.48
H      14.40       4.99       3.77
H      14.53       2.48       9.57
H      14.30       2.34       7.81
H      12.41       0.70       8.20
H      13.93       0.12       8.95
H      12.65       0.85       9.96
O      20.19       6.39      11.88
H      18.25       6.39      11.25
C      18.87       5.80       8.47
C       7.49       3.85      10.02
C       7.58       4.38       7.87
C       8.36       4.39       9.05
C      13.18       4.55       8.83
C      13.84       5.38       7.64
C      17.47       5.89       8.41
C       9.66       4.90       9.17
C      14.17       5.21       9.86
C      14.86       6.00       8.68
C      13.16       6.38      10.09
C      12.15       5.72       9.06
C      13.83       7.19       8.92
C      12.83       6.56       7.90
C      16.26       6.02       8.51
C      10.77       5.41       9.18
C      19.66       6.00       9.63
C      19.83       5.55       7.48
