48

O       1.14       8.21      11.11
O       3.07       7.20      10.53
O       1.35       7.20      -2.46
O       3.28       8.22      -3.04
H       2.10      12.87       1.88
H       2.02       9.15       4.02
H       2.17      12.86       6.17
H       2.99      14.75       2.07
O       1.01      19.45       3.45
O       2.94      19.46       4.63
H       1.11      14.70       5.97
H       1.23      11.76       0.33
H       3.12       8.42       2.34
H       3.09       8.42       5.74
H       1.09      11.73       7.66
C       2.10       8.00      10.31
C       2.30       8.00      -2.25
C       1.98      18.88       4.04
C       2.11      10.92       2.80
C       2.10      12.32       2.82
C       2.09      13.04       4.02
C       2.10      12.32       5.23
C       2.09      10.92       5.24
C       2.08      10.24       4.02
C       2.49      16.64       2.93
C       2.55      15.25       2.93
C       2.06      14.52       4.03
C       1.54      15.23       5.12
C       1.54      16.62       5.12
C       2.00      17.37       4.03
C       1.69      10.77       0.33
C       1.77      10.08      -0.88
C       2.27       8.77      -0.95
C       2.72       8.20       0.25
C       2.70       8.89       1.45
C       2.16      10.19       1.52
C       2.63       8.89       6.61
C       2.63       8.20       7.82
C       2.09       8.75       9.01
C       1.56      10.05       8.89
C       1.55      10.75       7.68
C       2.09      10.18       6.52
Br       0.89      17.51       6.67
Br       3.09      17.56       1.38
Br       1.18      10.96      -2.45
Br       3.39       6.42       0.26
Br       3.34       6.43       7.71
Br       0.86      11.03      10.36
