16

C       1.81       9.54       8.76
C       2.52      11.71       8.99
C       1.27      11.90       8.38
S       3.32      13.21       9.28
S       0.45      10.41       8.10
Cl      -0.45      13.75       7.31
O       2.85       7.47       9.08
O       3.23      16.07       8.82
H       3.76       9.96       9.60
C       1.76       8.07       8.80
O       0.64       7.52       8.54
C       2.08      15.56       8.57
O       1.01      16.21       8.31
C       0.97      13.27       8.14
C       2.84      10.35       9.18
C       1.99      14.10       8.59
