20

N       8.54       4.11      11.12
N       1.49       3.75      10.71
C       7.82       3.73      12.19
H       8.39       3.40      13.06
H       5.91       3.35      13.08
C       6.43       3.71      12.19
C       5.74       4.11      11.04
H       6.03       4.91       9.03
H       8.50       4.84       9.17
C       6.50       4.58       9.95
C       7.88       4.55      10.02
H       3.88       3.87      13.08
H       1.43       3.62      12.77
C       4.27       4.01      10.93
C       3.46       3.89      12.07
H       1.73       3.85       8.66
C       2.09       3.75      11.92
H       4.21       4.03       8.75
C       2.25       3.87       9.62
C       3.64       3.99       9.68
