34

O       1.73      12.32      20.12
O      -0.18       1.91      29.38
H      -1.54       8.27      22.59
H       2.33       5.18      25.46
H      -1.46      10.13      20.93
H       2.60       3.42      27.21
H       2.82      11.54      21.11
H      -2.32       4.75      28.55
C       0.61      11.70      20.34
C       0.83       2.61      29.04
O       2.97      10.87      21.84
O      -1.63       4.02      28.71
O       3.27       7.65      23.63
O       3.48       9.73      24.35
O      -2.81       5.99      27.84
O      -1.91       7.29      26.32
C      -0.63       8.83      22.42
C       1.53       4.96      26.17
C      -0.57       9.86      21.50
C       1.66       3.97      27.13
C       0.61      10.59      21.29
C       0.63       3.65      28.01
C       1.79      10.26      22.02
C      -0.61       4.35      27.92
C       1.71       9.21      22.95
C      -0.70       5.44      27.01
C       0.51       8.50      23.18
C       0.35       5.73      26.09
C       0.43       7.51      24.18
C       0.29       6.72      25.10
N       2.91       8.84      23.71
N      -1.86       6.30      27.04
O      -0.48      12.05      19.79
O       2.01       2.47      29.53
