22

O      27.34      16.91       1.51
O      28.69      15.08       1.71
O      22.81      11.71       7.13
O      21.61      13.65       6.98
H      25.00      11.29       6.62
H      25.21      10.99       4.89
H      26.52      11.76       5.81
H      27.12      11.98       3.38
H      28.21      12.83       4.49
H      28.34      13.13       2.75
C      27.66      15.77       2.01
C      26.70      15.26       3.00
C      24.70      15.19       4.41
C      23.65      13.54       5.89
C      22.63      12.91       6.73
C      24.85      13.05       5.39
C      25.43      11.70       5.71
C      25.47      14.01       4.52
C      26.64      14.05       3.68
C      27.63      12.94       3.56
S      25.37      16.34       3.35
S      23.27      15.16       5.33
