24

C       7.30       7.55       1.39
H       7.05       5.00       6.04
H       8.37       6.77       7.83
H       4.60       5.56       7.36
H       4.14       7.69       5.52
H       5.46       9.47       7.30
H       7.91       8.90       5.98
O       5.61       5.66      12.31
O       4.61       7.67      12.66
O       6.90       8.64       0.89
O       8.12       6.72       0.83
C       5.29       6.83      11.96
C       7.43       6.98       7.30
C       6.70       5.99       6.34
C       6.87       7.24       2.72
C       5.67       7.21      10.63
C       7.17       8.16       6.31
C       6.44       7.17       5.32
C       5.81       8.48       7.01
C       6.07       7.30       8.03
C       5.07       7.49       6.05
C       5.33       6.30       7.04
C       6.65       7.17       3.92
C       5.86       7.29       9.43
