24

O       6.76       5.00      15.74
O       6.82       4.71      18.27
C       5.00       6.28      18.65
C       3.98       7.12      18.04
C       5.87       5.56      17.82
C       3.15       7.97      18.80
H       3.26       8.00      19.88
C       2.20       8.78      18.20
C       4.74       6.35      15.80
C       5.79       5.65      16.40
C       3.83       7.12      16.61
C       2.85       7.97      16.03
H       1.57       9.43      18.82
C       2.05       8.78      16.80
H       1.31       9.42      16.33
H       2.76       8.00      14.95
H       6.68       5.31      14.80
H       6.79       4.79      19.25
C       4.65       6.27      14.32
C       5.15       6.13      20.12
O       3.52       6.21      13.72
O       5.77       6.22      13.69
O       6.32       5.79      20.61
O       4.14       6.32      20.86
