38

C      25.71       6.28      14.62
C      27.12       6.28      14.59
C      27.86       6.97      13.57
C      25.71       4.91      16.62
C      27.11       4.88      16.64
C      27.84       4.17      17.65
C      31.37       4.87      16.61
C      29.97       4.84      16.62
C      29.23       4.11      17.62
C      31.37       6.30      14.66
C      29.97       6.31      14.62
C      29.24       7.02      13.61
C      25.02       5.60      15.62
C      27.83       5.58      15.62
C      32.06       5.59      15.64
C      29.25       5.58      15.62
H      25.12       6.80      13.87
H      25.10       4.40      17.37
H      31.96       4.34      17.35
H      31.98       6.84      13.92
N      29.90       7.73      12.59
N      27.20       7.67      12.54
N      29.88       3.38      18.62
N      27.18       3.45      18.66
O      34.14       6.25      14.72
O      22.94       4.95      16.55
O      34.14       4.90      16.55
H      30.89       7.89      12.77
H      29.44       8.60      12.35
H      26.23       7.40      12.42
H      27.69       7.61      11.65
H      30.86       3.18      18.41
H      29.39       2.52      18.85
H      26.19       3.67      18.75
H      27.64       3.51      19.56
O      22.94       6.23      14.67
C      33.56       5.59      15.64
C      23.53       5.60      15.62
