56

H       3.35       1.98       8.27
H      -1.83      -2.09       6.44
H       1.79       0.78       4.04
H       1.88      -1.60       5.04
H      -2.05       2.10       5.47
H       0.73      -2.10       7.23
H      -0.96       1.99       7.51
H      -3.54      -2.18       8.23
H       1.81       2.67       2.44
H      -2.16      -2.69       2.41
H       1.99      -3.35       3.31
H       2.52      -2.17       8.94
H      -2.74       1.92       9.23
H       1.62       2.05       6.49
H      -3.00       4.03       4.81
H      -2.10       5.26       3.87
H      -3.04       4.04       3.03
C       4.09      -0.14       9.77
C      -1.27      -2.45       2.99
C       0.99      -1.84       4.47
C       1.06      -2.83       3.50
C      -1.19       2.22       4.81
C      -1.22       3.28       3.89
C       1.32      -1.21       7.43
C       2.32      -1.25       8.39
C      -1.56       1.09       7.62
C      -2.54       1.05       8.60
C      -0.17       0.04       5.77
C      -4.36      -0.15       9.84
C       1.06      -0.02       6.71
C       3.05      -0.10       8.71
C      -1.31      -0.02       6.80
C      -3.28      -0.12       8.81
C      -0.14       1.30       4.88
C      -0.12       3.42       3.01
C      -0.19      -1.12       4.75
C      -0.09      -3.16       2.77
C      -0.06      -4.26       1.75
C      -0.06       4.45       1.93
C       1.81       1.12       7.02
C       2.79       1.09       8.02
C      -2.02      -1.20       7.05
C      -2.99      -1.26       8.05
C       0.95       1.48       4.02
C       0.96       2.53       3.11
C      -1.31      -1.43       3.94
C      -2.40       4.20       3.90
Br      -2.97      -0.48       4.01
O       4.47      -1.30      10.17
O      -4.81      -1.30      10.19
O      -4.76       0.97      10.29
O       4.53       0.98      10.21
O       1.09      -4.70       1.41
O      -1.17       4.87       1.45
O       1.10       4.82       1.55
O      -1.18      -4.66       1.30
