54

H       8.06       9.94      22.46
H       7.49       3.24      22.58
H      10.19       5.82      28.83
H       5.55       7.38      18.74
H      10.25       5.90      31.34
H       5.49       7.30      16.23
H       6.22       7.47      28.92
H       9.52       5.73      18.64
H       7.68       3.26      25.10
H       6.09       7.65      32.55
H       5.37       8.21      31.06
H       9.64       5.56      15.01
H      10.37       4.99      16.50
H       8.25       9.97      24.99
C       8.63       6.06      16.69
C       7.10       7.12      29.46
C       8.64       6.08      18.10
C       8.19       6.66      28.75
C       7.54       6.55      18.81
C       8.40       6.71      33.03
C       7.34       6.49      14.53
C       9.35       6.20      29.40
C       7.54       5.32      20.92
C       8.20       7.88      26.64
C       7.77       7.82      20.88
C       7.97       5.38      26.69
C       7.86       7.82      22.36
C       6.39       7.00      18.16
C       7.87       5.39      25.21
C       7.81       6.59      23.07
C       7.92       6.61      24.49
C       7.66       5.36      22.40
C       8.08       7.84      25.16
C       8.02       9.02      23.04
C       7.72       4.19      24.52
C       8.13       9.03      24.44
C       7.61       4.17      23.12
C       9.37       6.24      30.79
C       6.37       6.97      16.77
C       8.28       6.69      31.54
C       7.46       6.51      16.02
C       7.11       7.14      30.87
N       7.61       6.56      20.25
N       8.13       6.64      27.31
N       5.99       7.58      31.54
N       9.75       5.63      16.02
O       8.35       8.93      27.27
O       7.84       8.85      20.21
O       7.90       4.35      27.35
O       9.57       6.61      33.53
O       6.17       6.59      14.03
O       7.32       6.82      33.72
O       8.41       6.39      13.84
O       7.39       4.27      20.29
