48

C       3.78      21.85      10.89
C       4.98      21.52      10.23
C       5.82      20.55      10.83
C       5.47      19.94      12.03
C       8.97      18.95       2.63
C       8.29      19.81       3.65
C       8.61      19.66       5.00
C       7.94      20.39       5.98
C       6.94      21.31       5.63
C       6.63      21.47       4.26
C       7.29      20.72       3.29
C       5.15      24.11       7.47
C       4.93      23.49       8.71
C       5.32      22.16       8.95
C       5.98      21.46       7.93
C       5.80      23.38       6.46
C       6.23      22.06       6.68
H       5.42      28.35       5.50
H       6.27      26.04       5.87
H       3.00      25.30       8.59
H       2.19      27.61       8.24
H       2.48      21.46      12.57
H       3.10      22.57      10.42
H       6.75      20.27      10.34
H       6.11      19.19      12.48
H       9.40      18.95       5.28
H       8.21      20.26       7.03
H       5.83      22.15       3.97
H       7.01      20.81       2.23
H       4.48      24.06       9.52
H       6.24      20.42       8.08
H       5.98      23.85       5.50
O       3.96      30.39       6.08
O       2.02      29.76       6.89
O       2.64      19.83      14.30
O       4.62      18.70      14.41
O      10.03      18.35       3.08
O       8.48      18.84       1.47
C       3.22      29.46       6.59
C       3.75      28.11       6.83
C       4.90      27.66       6.18
C       5.37      26.37       6.38
C       4.70      25.50       7.26
C       3.56      25.97       7.93
C       3.08      27.26       7.73
C       3.82      19.54      13.88
C       4.26      20.27      12.66
C       3.42      21.23      12.08
