66

H       2.78       3.85       1.39
H       2.61       3.82      -1.14
H       3.35       7.12       7.69
H       7.23       5.31       7.37
H       7.07       5.46       4.87
H       4.43       7.78      -5.64
H       4.61       7.19      -8.06
H       5.59       3.77      -4.62
H       3.95       1.86      -6.58
H       4.09       2.30      -8.30
H       4.94       0.87      -7.69
H       6.53       2.77      -8.00
H       6.43       2.29      -6.30
H       3.22       9.52       6.21
H       4.03       9.52       4.64
H       2.26       9.74       4.73
H       2.77       7.39       4.03
H       2.01       7.39       5.61
C       5.34       6.09       9.16
C       5.32       4.90      -9.17
C       3.94       5.30      -2.87
C       5.72       7.06      -3.03
C       5.64       7.23      -1.56
C       4.86       6.34      -0.77
C       4.02       5.39      -1.40
C       6.41       8.19      -0.90
C       6.48       8.23       0.51
C       5.74       7.36       1.29
C       4.92       6.40       0.65
C       4.16       5.48       1.41
C       3.34       4.55       0.77
C       3.25       4.53      -0.63
C       5.75       7.46       2.78
C       4.26       5.45       2.88
C       4.09       6.94       5.68
C       4.18       6.79       7.06
C       5.29       6.21       7.67
C       6.36       5.75       6.89
C       6.27       5.84       5.50
C       5.15       6.43       4.92
C       4.73       6.78      -5.95
C       4.84       6.45      -7.30
C       5.24       5.17      -7.69
C       5.52       4.17      -6.73
C       5.40       4.52      -5.38
C       5.01       5.80      -5.00
C       5.87       2.76      -7.12
C       4.64       1.90      -7.44
C       2.92       7.68       5.07
C       3.12       9.20       5.16
N       4.88       6.08      -3.59
N       5.07       6.44       3.47
N       7.18       9.22      -1.66
N       7.42       9.22       1.11
O       6.49       5.97       9.70
O       4.23       6.16       9.78
O       6.45       4.62      -9.68
O       4.21       5.02      -9.78
O       3.15       4.57      -3.45
O       6.52       7.69      -3.72
O       6.32       8.37       3.38
O       3.66       4.63       3.57
O       6.52      10.15      -2.12
O       8.40       9.08      -1.68
O       8.50       8.78       1.50
O       7.05      10.40       1.10
