26

C       7.98      25.00      12.40
O      -2.00      21.16      13.72
O      -1.11      20.30      15.57
O       8.09      26.03      11.65
O       9.05      24.43      12.82
H      -0.31      22.43      12.32
H       1.90      23.43      11.82
H       3.29      22.29      15.75
H       1.09      21.22      16.19
H       3.34      25.06      12.16
H       5.61      25.94      11.59
H       7.42      22.92      14.04
H       5.18      22.02      14.61
C      -1.01      21.05      14.57
C       0.27      21.75      14.28
C       0.49      22.40      13.06
C       1.73      22.98      12.80
C       2.77      22.93      13.74
C       2.52      22.31      14.98
C       1.29      21.72      15.24
C       4.10      23.48      13.44
C       4.24      24.59      12.58
C       5.49      25.09      12.25
C       6.65      24.48      12.78
C       6.52      23.39      13.64
C       5.26      22.90      13.97
