50

C       2.27      17.53       2.05
C       3.33      20.05      -2.18
H       1.82      17.28       3.01
H       3.36      20.34      -3.23
C       2.34      16.59       1.06
C       3.19      21.00      -1.21
H       2.50      19.54       3.86
H       3.73      17.97      -3.86
H       1.88      15.62       1.23
H       3.04      22.04      -1.50
C       3.50      23.09       1.00
C       3.09      24.05       1.94
C       3.32      25.41       1.76
C       3.92      25.88       0.59
C       4.31      24.95      -0.37
C       4.13      23.59      -0.16
C       3.32      14.41      -0.83
C       3.42      13.39      -1.81
H       2.52      23.77       2.82
H       2.98      26.11       2.53
H       4.09      26.95       0.44
H       4.81      25.29      -1.28
H       4.56      22.91      -0.88
C       3.39      13.95       0.51
H       3.37      13.61      -2.87
C       3.57      12.05      -1.48
C       3.49      12.60       0.84
H       3.46      14.67       1.32
H       3.66      11.32      -2.29
H       3.68      10.58       0.10
H       3.53      12.32       1.89
O       2.57      15.23      -4.35
O       4.38      22.28       4.21
C       3.21      21.96       3.82
O       2.12      22.17       4.45
C       3.67      15.49      -3.75
O       4.84      15.23      -4.17
C       3.27      21.63       1.24
C       3.24      15.85      -1.19
C       3.09      21.15       2.57
C       3.52      16.32      -2.50
C       2.74      19.83       2.83
C       3.56      17.67      -2.82
C       2.70      18.87       1.82
C       3.38      18.67      -1.86
C       3.01      19.27       0.49
C       3.12      18.26      -0.52
C       3.59      11.63      -0.16
C       3.18      20.66       0.19
C       2.93      16.87      -0.22
