22

C       5.32       9.81      22.16
C       5.25      12.70      22.15
C       6.49      10.58      22.21
H       3.19       9.94      22.07
H       8.44      10.08      23.18
H       8.51      10.13      21.40
H       8.41      12.63      21.45
H       8.30      12.59      23.23
C       4.04      11.93      22.07
C       6.43      11.97      22.22
C       4.12      10.51      22.10
C       8.01      10.54      22.28
C       7.94      12.12      22.30
H       2.81      13.52      21.84
H       2.03      11.97      21.69
N       2.80      12.52      22.03
C       5.33       8.32      22.20
C       5.28      14.18      22.14
O       4.19       7.74      22.29
O       6.45       7.74      22.14
O       6.42      14.74      22.28
O       4.17      14.82      21.99
