80

H       8.73       6.44       7.45
H       2.21       3.45       9.68
H      12.76       7.95       8.41
H      -1.82       1.94       8.72
H      10.04       5.14      11.46
H       0.89       4.76       5.67
H      13.74       7.17      10.56
H      -2.80       2.72       6.57
H      12.33       5.80      12.11
H      -1.40       4.09       5.02
H       6.84       2.97       9.16
H       4.10       6.92       7.97
H       7.82       5.89      10.98
H       3.12       4.00       6.15
H       8.29       4.26      10.41
H       2.64       5.63       6.72
H       5.45       8.36       9.19
H       5.48       1.53       7.94
H       7.18       7.96       9.05
H       3.76       1.93       8.08
H       6.34       7.67      10.57
H       4.60       2.22       6.56
H       9.26       8.45       5.30
H       1.67       1.44      11.83
H       7.64       8.25       6.02
H       3.30       1.64      11.11
H      10.08       6.88       3.64
H       0.85       3.01      13.50
H       6.37       6.11       5.68
H       4.57       3.79      11.45
H       7.50       3.71       2.29
H       3.44       6.18      14.84
H       5.90       4.24       4.13
H       5.04       5.65      13.00
H       9.58       5.06       2.03
H       1.35       4.83      15.10
C      10.86       7.03       8.72
C       0.08       2.86       8.41
C      10.09       6.20       9.58
C       0.84       3.69       7.55
C      12.17       7.35       9.10
C      -1.23       2.54       8.04
C      10.63       5.77      10.80
C       0.31       4.12       6.33
C      12.71       6.91      10.30
C      -1.78       2.98       6.84
C      11.93       6.14      11.16
C      -0.99       3.75       5.98
C      10.34       7.65       7.47
C       0.59       2.24       9.66
C       6.62       5.11       9.34
C       4.31       4.78       7.79
C       6.23       3.84       8.90
C       4.71       6.05       8.24
C       7.91       5.24      10.09
C       3.03       4.65       7.04
C       5.85       6.25       9.01
C       5.08       3.65       8.12
C       6.22       7.63       9.47
C       4.72       2.26       7.66
C       8.26       6.62       4.76
C       2.68       3.27      12.37
C       8.57       7.73       5.74
C       2.37       2.16      11.39
C       9.16       6.32       3.73
C       1.78       3.58      13.40
C       7.08       5.87       4.89
C       3.85       4.02      12.24
C       7.71       4.52       2.98
C       3.22       5.37      14.15
C       6.82       4.82       4.01
C       4.12       5.07      13.12
C       8.88       5.28       2.83
C       2.05       4.61      14.30
N       9.19       7.20       6.94
N       1.74       2.69      10.19
O      10.97       8.62       6.95
O      -0.03       1.27      10.19
O       8.84       5.86       9.17
O       2.09       4.03       7.96
