22

O      14.59       0.93      10.53
O      14.39       0.75       8.29
O      13.21      -8.36       7.99
O      13.36      -8.18      10.23
H      13.75      -3.80       6.48
C      14.41       0.24       9.46
C      14.22      -1.23       9.60
C      14.06      -2.02       8.48
C      13.89      -3.42       8.60
H      14.08      -1.58       7.49
C      13.72      -4.26       7.47
H      13.42      -6.26       6.75
H      13.71      -5.87      11.02
H      14.03      -3.62      12.04
H      14.33      -1.15      11.76
C      13.54      -5.61       7.62
C      13.54      -6.20       8.91
C      13.71      -5.41      10.04
C      13.88      -4.01       9.91
C      14.05      -3.17      11.05
C      14.21      -1.81      10.90
C      13.35      -7.67       9.06
