10

O       8.22      -2.70      12.05
C       6.25      -3.56      12.88
O       1.59      -7.09      13.70
C       3.57      -6.24      12.88
C       4.43      -5.38      12.88
C       5.39      -4.43      12.88
O       7.11      -1.59      13.72
O       2.72      -8.22      12.06
C       7.27      -2.54      12.88
C       2.55      -7.26      12.88
