22

O       3.22       2.55       6.31
F       3.11      -0.18       7.04
F      -4.17       2.22       7.91
H      -0.02       3.75       7.12
H      -2.44       4.10       7.42
H      -3.05      -0.11       7.94
H       1.39      -2.03       7.50
C       2.26       2.52       7.17
C      -1.24      -2.08       7.78
C      -0.66       2.89       7.29
C      -2.01       3.10       7.47
C      -2.84       1.99       7.72
C      -2.36       0.71       7.76
C      -0.98       0.47       7.56
C      -0.10       1.59       7.35
C       1.31       1.37       7.19
C       1.79       0.07       7.21
C       0.95      -1.03       7.45
C      -0.41      -0.85       7.61
O       2.05       3.42       8.04
O      -2.36      -2.12       7.17
O      -0.75      -3.03       8.50
