22

C      11.24      12.86       5.46
C      11.01      10.80       4.02
H      14.99      12.61       7.59
H       9.61      12.36       4.16
C      12.48      12.71       5.99
N      14.62      14.57       8.30
H      10.68      13.76       5.73
H      11.96      10.38       4.36
N       8.91       9.64       1.27
N      13.62      15.49       8.09
H      13.06      11.81       5.75
N       9.96       8.79       1.16
H      11.74       8.46       2.27
H       8.35      11.15       2.63
H      11.86      15.53       6.93
C      14.33      13.48       7.57
C       9.10      10.42       2.35
C      12.73      14.96       7.24
C      10.33      10.09       2.96
C      13.12      13.66       6.87
C      10.57      11.98       4.53
C      10.82       9.04       2.17
