22

H       2.69       0.90       6.52
H       6.87      -1.90       3.47
H       7.75      -1.72       5.02
H       6.84       0.60       3.20
H       7.76       0.77       4.71
H       2.49      -2.70       7.32
C       4.53       2.52       5.38
C       6.92       0.25       4.24
C       4.56      -3.34       5.74
C       5.62       0.24       5.01
C       4.57       1.03       5.48
C       3.52       0.34       6.10
C       3.50      -1.06       6.24
C       4.57      -1.85       5.74
C       5.61      -1.15       5.15
C       6.93      -1.32       4.41
C       2.35      -1.66       6.96
O       5.62       3.13       5.12
O       3.40       3.08       5.60
O       5.65      -3.92       6.03
O       3.47      -3.91       5.40
O       1.30      -1.06       7.17
