20

H      21.21      12.27      13.45
H      20.32      10.73      13.53
H      22.11       9.78      15.04
H      23.00      11.32      14.96
C      25.29       8.89      13.55
O      25.09       9.07      14.80
O      26.27       8.28      13.02
C      21.12      11.12      10.01
O      21.24      10.98       8.75
O      20.16      11.69      10.62
C      22.19      10.55      10.88
C      24.26       9.45      12.63
C      22.14      10.65      12.27
C      24.32       9.34      11.23
C      23.13      10.12      13.11
C      23.33       9.87      10.38
C      21.32      11.18      13.43
C      22.44      10.59      14.37
F      23.52       9.69       9.06
F      25.34       8.72      10.60
