36

H       1.64      18.64       4.26
H       5.01      26.40      -4.26
H       1.39      20.39       2.51
H       5.26      24.65      -2.51
H       5.59      20.04       1.59
H       1.06      25.00      -1.59
H       5.83      18.32       3.38
H       0.82      26.72      -3.38
H       5.04      22.47       1.77
H       1.61      22.57      -1.77
C       2.78      27.69      -5.00
C       3.87      17.35       5.00
C       2.50      18.95       3.66
C       4.15      26.08      -3.67
C       2.37      19.93       2.68
C       4.29      25.11      -2.68
C       3.48      20.34       1.92
C       3.17      24.70      -1.92
C       4.73      19.75       2.19
C       1.92      25.29      -2.19
C       4.87      18.78       3.18
C       1.78      26.26      -3.18
C       3.75      18.38       3.93
C       2.90      26.66      -3.93
C       4.30      22.47       0.98
C       2.36      22.56      -0.98
C       4.25      23.54       0.09
C       2.40      21.49      -0.09
C       3.28      23.62      -0.92
C       3.37      21.42       0.92
Br       5.52      24.95       0.39
Br       1.13      20.09      -0.39
O       3.88      28.09      -5.51
O       2.77      16.95       5.51
O       1.62      28.08      -5.34
O       5.04      16.96       5.34
