12

C       7.15      10.02      12.77
C       9.32       9.85      13.04
C       7.19       8.50      10.55
C       7.69       9.20      11.75
C       5.82      10.56      13.16
N       8.22      10.41      13.56
H      10.31       9.96      13.45
N       9.04       9.12      11.95
O       5.79      11.41      14.09
O       4.73      10.18      12.56
O       5.96       8.46      10.25
O       8.08       7.96       9.81
