13

C       4.65       5.07       4.86
H       2.10       3.01       7.95
O       4.93       4.09       8.06
C       4.21       3.04       8.16
O       4.57       6.07       5.65
C       3.78       3.85       5.13
O       4.47       2.09       8.96
H       3.22       3.61       4.21
H       4.46       3.00       5.28
C       2.97       2.95       7.27
N       2.89       4.03       6.29
O       5.43       5.06       3.86
H       2.95       1.95       6.79
