16

F      18.33      11.63      27.60
F      13.54       8.48      29.25
O      17.10      13.77      26.18
S      14.44      11.22      27.53
S      17.43       8.87      29.30
C      15.98      13.21      26.38
C      15.89       6.90      30.48
C      17.04      11.27      27.72
C      14.83       8.83      29.12
C      15.97      11.98      27.18
C      15.90       8.12      29.67
C      15.24       9.97      28.40
C      16.64      10.12      28.43
O      14.83      13.59      25.96
O      17.04       6.48      30.85
O      14.75       6.38      30.73
