24

O       6.94       8.85       1.46
H       7.80       5.56       6.06
O       6.03       6.15      13.01
O       7.93       6.82       1.16
O       4.87       8.11      13.01
H       3.42       9.98       9.54
H       3.97       8.31       9.89
H       2.97       8.65       8.43
O       4.93       9.36       8.32
C       5.68       7.24      12.50
C       6.15       7.52      11.17
C       7.08       6.38       7.92
C       7.18       6.31       6.54
C       5.66       8.21       6.36
C       5.61       8.33       7.76
C       6.33       7.40       8.56
C       6.48       7.24       5.74
C       6.63       7.22       4.34
C       6.27       7.49       9.96
C       6.82       7.30       3.14
C       7.24       7.68       1.82
C       3.75       9.03       9.10
Br       7.96       5.07       8.97
Br       4.58       9.34       5.28
