18

C       8.58      14.55       5.31
O       8.25      10.47       4.47
O       8.60      17.29       6.17
C       7.63      15.12       6.22
C       6.39      13.02       6.28
H      10.33      14.78       4.26
N       9.61      15.26       4.78
O       6.92      16.86       7.64
H       5.85      14.80       7.36
H       9.75      16.22       5.09
C       7.26      10.99       5.08
O       6.19      10.38       5.43
C       7.35      12.44       5.43
H       5.55      12.42       6.63
C       8.42      13.19       4.96
C       7.72      16.51       6.70
H       9.15      12.72       4.30
C       6.56      14.33       6.67
