16

O      25.25       6.44       7.43
Cl      23.13       5.97       5.89
O      26.58       8.25       7.43
C      25.59       7.58       7.00
C      22.32       9.97       2.64
C      24.75       8.19       5.88
C      23.16       9.36       3.75
C      23.63       7.51       5.34
C      24.28      10.04       4.30
C      22.85       8.08       4.30
Cl      24.78      11.59       3.75
Cl      21.53       7.14       3.75
Cl      26.39      10.41       5.89
O      22.66      11.12       2.21
O      21.34       9.30       2.21
C      25.06       9.47       5.34
