26

C       8.72       3.48      13.55
C       6.38      -2.19      13.70
C       8.69      -2.16      14.39
C       6.45       3.56      14.39
H       9.60       4.01      13.19
C       7.61       4.22      13.97
C       7.53       1.41      14.01
H       5.59       4.15      14.72
C       7.51      -0.06      14.05
H       5.49      -2.76      13.44
C       7.55      -2.88      14.02
H       9.59      -2.71      14.68
H       9.52       1.52      13.19
H       5.45      -0.26      13.43
H       9.56      -0.22      14.72
H       5.52       1.65      14.78
C       7.65       5.71      13.98
C       7.59      -4.38      13.96
O       8.81       6.26      13.92
O       6.48      -4.98      13.80
O       8.74      -4.93      14.06
O       6.55       6.33      14.04
C       8.67       2.09      13.56
C       6.36      -0.80      13.71
C       8.67      -0.77      14.41
C       6.41       2.16      14.42
