72

H       9.20       6.72       9.56
H       3.32       6.07      -9.51
H       6.18       9.98       3.44
H       6.75       3.32      -3.45
H       7.50       6.94      -9.95
H       4.93       6.52       9.92
H       7.75       6.98      -7.44
H       4.72       6.52       7.41
H       5.37       9.90      -3.40
H       6.79       3.29       3.42
H       5.56       9.95      -0.93
H       6.69       3.25       0.95
H       5.98      10.01       0.98
H       6.85       3.29      -0.98
H      10.83       8.11       7.69
H       1.29       6.34      -7.71
C       7.22       6.63      11.38
C       5.24       6.51     -11.36
C       6.48       7.89       5.04
C       6.25       5.37      -5.04
C       6.69       5.38       5.03
C       5.69       7.83      -5.02
C       5.70       6.58       7.90
C       6.79       6.78      -7.91
C       5.81       6.58       9.28
C       6.65       6.76      -9.29
C       8.22       6.69       9.08
C       4.29       6.27      -9.05
C       8.10       6.71       7.70
C       4.43       6.28      -7.66
C       6.84       6.65       7.10
C       5.69       6.55      -7.09
C       6.46       6.64       2.86
C       6.09       6.61      -2.85
C       6.39       7.86       3.57
C       6.31       5.41      -3.57
C       6.22       9.05       2.87
C       6.58       4.23      -2.88
C       6.61       5.41       3.56
C       5.80       7.81      -3.55
C       7.08       6.63       9.88
C       5.40       6.51      -9.87
C       6.02       7.85      -0.72
C       6.48       5.39       0.73
C       6.44       5.39      -0.74
C       6.16       7.87       0.74
C       6.18       6.62      -1.43
C       6.37       6.63       1.43
C       5.72       9.01      -1.45
C       6.63       4.21       1.46
C       5.61       8.99      -2.84
C       6.69       4.22       2.86
C       6.11       9.05       1.48
C       6.64       4.23      -1.49
S       9.56       6.77       6.66
S       3.05       5.97      -6.58
N       6.70       6.64       5.67
N       5.84       6.58      -5.66
O       8.40       6.59      11.85
O       4.05       6.39     -11.82
O       6.14       6.68      12.06
O       6.30       6.62     -12.06
O       6.38       8.92       5.71
O       6.53       4.39      -5.72
O       5.48       8.84      -5.68
O       6.74       4.35       5.69
O       9.85       5.45       6.20
O       9.45       7.88       5.74
O      10.72       7.14       7.73
O       3.32       4.79      -5.80
O       2.65       7.20      -5.95
O       1.89       5.56      -7.63
