31

C       8.72      13.47       8.27
C       7.98      19.33      10.07
C       8.70      14.84       8.14
H       9.03      15.31       7.21
H       8.53      17.55       8.19
C       7.09      18.14      12.61
C       6.59      17.45      13.87
C       6.20      18.45      14.95
H       7.50      13.16      11.45
H       7.05      19.09      15.23
H       5.39      19.12      14.60
H       5.84      17.95      15.86
O       8.89      10.70       8.71
H       5.72      16.81      13.63
H       7.37      16.77      14.26
H       7.95      18.78      12.86
H       6.32      18.85      12.25
O       7.26      19.88       9.18
O       7.55      10.88      10.54
O       8.81      19.91      10.85
H       9.07      12.83       7.45
H       7.15      15.39      12.45
C       8.24      11.37       9.58
C       8.27      12.86       9.47
C       7.89      17.84      10.21
C       7.47      15.88      11.53
C       7.49      17.25      11.45
C       8.24      17.07       9.12
C       8.27      15.66       9.21
C       7.86      15.05      10.44
C       7.85      13.64      10.53
