86

H       3.13       9.47       2.76
H       2.69      10.23       1.17
H       3.46      11.21       2.47
H       4.01       2.48      -2.26
H       4.13       1.86      -0.56
H       5.02       1.03      -1.88
H       8.44       3.90       8.45
H       7.70       3.06       7.03
H       7.15       2.66       8.69
H       4.79      10.31      -8.45
H       6.45       9.63      -8.25
H       5.44      10.03      -6.81
H       6.48       9.50       8.53
H       6.65      10.38       6.97
H       7.86      10.62       8.27
H       7.94       2.83      -8.20
H       6.30       3.54      -8.38
H       6.79       2.81      -6.81
C       7.45       6.79       9.10
C       6.34       6.34      -9.09
C       5.19       5.23      -2.81
C       5.33       7.51       3.03
C       5.42       7.73      -2.75
C       6.45       5.27       2.83
C       5.24       7.66      -1.29
C       5.98       5.22       1.43
C       5.37       6.41      -0.62
C       5.52       6.40       0.79
C       5.41       5.19      -1.35
C       5.25       7.57       1.55
C       5.06       8.80      -0.53
C       6.10       4.06       0.67
C       4.96       8.78       0.89
C       5.73       3.99      -0.70
C       6.19       5.44       5.80
C       4.99       7.36      -5.70
C       6.66       5.47       7.13
C       5.35       7.43      -7.06
C       7.22       6.66       7.61
C       6.21       6.45      -7.59
C       7.44       7.76       6.78
C       6.84       5.53      -6.75
C       7.14       7.63       5.41
C       6.63       5.63      -5.36
C       6.46       6.49       4.92
C       5.67       6.49      -4.83
C       3.40      10.22       2.01
C       4.66       2.00      -1.51
C       7.52       3.46       8.04
C       5.43       9.67      -7.84
C       7.19       9.91       7.80
C       7.13       3.37      -7.69
N       5.41       6.49      -3.43
N       6.08       6.42       3.55
N       4.92      10.15      -1.14
N       6.60       2.79       1.25
N       5.32       4.32       5.40
N       3.78       8.07      -5.24
N       7.58       8.68       4.48
N       7.50       4.83      -4.47
O       8.57       6.48       9.59
O       5.32       5.85      -9.67
O       6.45       7.22       9.75
O       7.41       6.70      -9.66
O       4.90       4.26      -3.50
O       4.85       8.34       3.79
O       5.60       8.79      -3.35
O       7.12       4.39       3.34
O       3.77      10.48      -1.45
O       5.94      10.83      -1.20
O       5.75       2.07       1.77
O       7.79       2.55       1.08
O       4.74       9.96       1.50
O       5.86       2.79      -1.30
O       4.28       4.63       4.79
O       5.65       3.18       5.71
O       3.01       7.42      -4.53
O       3.60       9.23      -5.63
O       6.46       4.45       8.01
O       4.83       8.35      -7.91
O       8.06       8.86       7.29
O       7.71       4.63      -7.28
O       8.15       8.30       3.44
O       7.38       9.85       4.79
O       8.02       5.44      -3.52
O       7.65       3.64      -4.73
