20

C      33.39      17.52      28.15
C      31.34      16.48      26.38
C      32.25      18.24      27.81
C      32.50      15.73      26.69
C      31.27      17.75      26.95
C      33.51      16.23      27.56
C      31.52      19.55      28.04
C      30.41      18.99      27.06
H      31.19      19.71      29.07
H      32.05      20.45      27.70
H      30.30      19.55      26.12
H      29.42      18.84      27.50
Cl      32.76      14.19      25.96
Cl      34.84      15.21      27.91
C      30.20      16.00      25.55
C      34.39      18.16      29.07
O      29.94      14.75      25.54
O      29.54      16.91      24.94
O      35.56      17.67      29.14
O      33.96      19.19      29.70
