32

O       5.68       7.94       7.92
O       6.56       5.89       8.33
H      14.59       7.36       4.12
H      12.91      11.29       3.36
O      18.16       9.55       1.67
H      10.93       6.20       6.23
O      17.28      11.60       1.25
H       9.25      10.14       5.46
H      17.56       8.20       2.46
H      15.81      12.29       1.65
O      16.81       7.78       2.96
O      14.93      12.19       2.09
O       8.92       5.30       7.49
H       8.03       5.20       7.93
O       7.04       9.71       6.63
H       6.28       9.29       7.13
C       6.65       7.09       7.82
C      17.19      10.40       1.76
C      15.98      10.02       2.46
C      15.84       8.71       3.03
C      14.67       8.35       3.70
C      13.62       9.28       3.82
C      13.73      10.57       3.27
C      14.89      10.94       2.60
C      12.43       8.91       4.50
C      11.41       8.58       5.09
C      10.23       8.21       5.77
C      10.12       6.92       6.32
C       8.96       6.55       6.99
C       7.86       7.47       7.12
C       8.01       8.78       6.55
C       9.17       9.14       5.88
