60

C       2.16      26.19      10.85
C       1.62      22.11      15.89
C       1.62      22.81      14.67
C       2.26      24.05      14.56
C       2.92      24.59      15.67
C       2.97      23.89      16.89
C       2.30      22.65      17.00
C       2.69      22.79       9.45
C       2.66      22.08       8.24
C       1.96      22.64       7.14
C       1.31      23.88       7.25
C       1.39      24.58       8.47
C       2.07      24.04       9.56
C       1.57      29.09      11.04
C       1.54      30.49      11.03
C       2.22      31.23      12.06
C       2.91      30.49      13.07
C       2.88      29.09      13.07
C       2.22      28.38      12.05
H       2.16      23.02      12.07
H       2.19      26.73       9.91
H       2.23      26.74      14.20
H       1.04      22.42      13.84
H       3.49      25.52      15.58
H       3.28      22.40      10.27
H       0.84      25.52       8.57
H       1.00      28.56      10.28
H       3.45      28.55      13.82
N       3.63      24.44      17.99
N       0.98      20.87      15.97
N       3.27      20.84       8.14
N       0.63      24.44       6.17
N       0.89      31.12       9.99
N       3.56      31.12      14.12
O       1.29      33.33      11.42
O       3.14      33.33      12.71
O       1.37      22.14      19.13
O       3.25      21.07      18.52
O       0.99      21.08       5.60
O       2.87      22.15       4.99
H       4.12      23.77      18.58
H       4.27      25.19      17.73
H       0.51      20.69      16.86
H       0.33      20.71      15.21
H       3.73      20.65       7.25
H       3.93      20.66       8.89
H       0.13      23.77       5.58
H       0.00      25.19       6.43
H       0.64      32.09      10.16
H       0.19      30.56       9.51
H       3.80      32.09      13.95
H       4.26      30.56      14.60
C       2.22      32.69      12.06
C       2.31      21.91      18.29
C       1.94      21.91       5.83
C       2.13      24.79      10.84
C       2.18      24.11      12.06
C       2.23      24.79      13.28
C       2.24      26.19      13.26
C       2.21      26.91      12.06
