15

N      21.42      13.26      15.93
N      22.43      14.11      15.94
C      21.84      15.33      15.91
N      20.26      13.93      15.90
N      20.49      15.23      15.89
H      20.82      17.83      15.59
C      22.64      18.99      15.73
C      21.90      17.81      15.73
H      22.16      19.95      15.56
C      23.96      16.62      16.09
C      24.61      17.85      16.10
H      25.69      17.91      16.26
H      24.52      15.70      16.23
N      23.97      19.02      15.91
C      22.57      16.59      15.91
