16

C      20.01      14.35      20.22
O      25.38      11.57      18.92
O      24.31      12.26      17.01
C      23.31      12.66      19.08
S      21.96      13.42      18.28
S      21.25      13.58      22.40
C      24.41      12.12      18.28
C      21.21      13.73      19.80
H      23.96      12.21      21.11
H      19.25      14.78      19.58
C      23.20      12.65      20.46
O      17.84      15.43      21.76
C      18.80      14.87      22.40
C      19.90      14.33      21.60
O      18.90      14.74      23.67
C      22.00      13.26      20.88
