14

H       0.34       1.29       6.56
H      -1.51      -1.69       6.18
I      -2.78      -0.34       8.59
I       2.29      -1.02       7.51
C      -0.11      -3.34       6.42
O      -1.06      -4.11       6.80
C      -0.27       0.48       6.98
C      -1.45       0.88       7.51
C       0.27      -0.87       6.89
C      -0.47      -1.91       6.44
O       1.05      -3.69       6.04
O      -3.15       2.53       7.37
O      -0.99       3.14       7.01
C      -1.90       2.30       7.29
