12

C       3.49       7.88       2.56
C       3.38      11.68      -2.56
C       3.47       8.61       1.57
C       3.39      10.96      -1.57
C       3.44       9.41       0.49
C       3.42      10.16      -0.49
C       3.49       7.04       3.73
C       3.37      12.53      -3.73
O       4.64       6.72       4.19
O       2.23      12.85      -4.19
O       2.35       6.72       4.19
O       4.51      12.85      -4.19
