34

C      14.22      18.40       3.84
C       2.32      18.42       3.85
C      14.44      21.32      12.70
C       2.23      21.23      12.77
C       4.33      19.52       7.23
C       6.26      19.82       8.37
C       4.28      20.13       9.41
C      12.26      19.51       7.24
C      12.32      20.18       9.40
C      10.33      19.83       8.38
C       8.90      19.83       8.40
C       7.69      19.82       8.40
C      13.71      20.91      11.52
C      13.07      20.56      10.55
C      12.94      19.14       6.04
C      13.52      18.82       5.03
C       2.92      20.82      11.57
C       3.54      20.48      10.58
C       3.64      19.17       6.03
C       3.05      18.85       5.02
N       5.68      19.50       7.20
N       5.62      20.13       9.51
N       3.57      19.83       8.30
N      13.02      19.85       8.30
N      10.97      20.19       9.51
N      10.91      19.49       7.21
O      13.94      17.23       3.41
O      15.07      19.22       3.35
O       2.65      17.29       3.37
O       1.40      19.20       3.43
O      14.18      22.50      13.12
O      15.24      20.47      13.21
O       2.50      22.41      13.19
O       1.45      20.38      13.30
