26

N       6.42       3.53      14.04
N       6.42      -3.43      14.00
C       5.55      -1.38      14.90
C       4.68      -0.63      15.78
H       4.97       3.48      15.50
H       4.02       1.28      16.44
H       7.87       3.53      12.58
C       6.43       0.76      14.03
C       6.42      -0.66      14.03
H       4.97      -3.43      15.45
H       7.89      -3.37      12.55
H       8.84      -1.18      11.62
O       3.83      -1.26      16.63
O       9.03       1.36      11.43
H       3.89      -2.23      16.54
H       8.96       2.33      11.50
C       5.60       2.87      14.86
C       5.56       1.46      14.90
C       4.69       0.74      15.77
C       7.25       2.88      13.21
C       7.30       1.48      13.16
C       8.18       0.73      12.28
C       7.25      -2.76      13.19
C       7.30      -1.36      13.15
C       8.17      -0.64      12.29
C       5.60      -2.78      14.84
