13

O      11.35       6.33       5.73
O      10.61       4.52       6.89
C      14.14       5.10       2.20
H      12.42       3.81       2.34
H      13.82       3.28       3.34
C      13.24       4.16       3.00
C      11.31       5.10       6.00
O      14.10       6.33       2.46
O      14.84       4.52       1.31
O      12.72       4.90       4.10
C      12.21       4.16       5.20
H      13.03       3.81       5.86
H      11.63       3.29       4.86
