22

O      15.04      12.13       4.90
O      19.98       9.42       0.75
O      21.05       8.79       2.66
H      17.80       8.56       2.63
H      21.64      14.12       3.47
O      16.48      12.00       6.66
H      19.89      15.05       5.00
H      17.86      13.74       5.50
H      16.05       9.58       4.07
C      20.17       9.43       2.01
C      20.58      12.29       3.14
C      20.74      13.54       3.71
C      19.76      14.06       4.57
C      18.63      13.32       4.85
C      18.43      12.04       4.29
C      19.43      11.48       3.40
C      19.17      10.19       2.84
C      17.98       9.54       3.08
C      16.99      10.11       3.90
C      17.23      11.32       4.52
C      16.17      11.87       5.43
Cl      21.83      11.79       2.04
