16

C       4.01       1.15      14.21
C       6.34      -0.35      13.87
C       3.95      -0.24      14.20
C       6.41       1.04      13.87
C       5.11      -1.00      14.03
C       5.24       1.80      14.04
H       3.11       1.76      14.34
H       7.24      -0.95      13.74
H       3.00      -0.76      14.34
H       7.36       1.56      13.74
O       6.46       3.84      13.97
O       3.89      -3.03      14.11
O       6.15      -3.12      13.96
O       4.20       3.93      14.11
C       5.31       3.30      14.04
C       5.04      -2.49      14.03
