24

H      -0.75       9.08      20.68
H      -0.76       5.11      18.95
H       6.35       8.99      20.67
H       6.30       5.05      18.87
H       4.04       8.92      20.86
H       1.59       8.95      20.87
H       1.54       5.15      18.83
H       3.98       5.13      18.81
N      -2.26       7.74      20.06
N      -2.26       6.49      19.50
N       7.83       7.65      19.99
N       7.82       6.41      19.41
C      -0.97       8.11      20.26
C      -0.10       7.09      19.83
C      -0.97       6.09      19.36
C       6.56       8.03      20.22
C       5.67       7.02      19.79
C       6.53       6.02      19.29
C       4.21       7.02      19.82
C       3.50       8.09      20.40
C       2.11       8.11      20.41
C       1.36       7.06      19.84
C       2.08       5.99      19.28
C       3.46       5.97      19.27
