26

H      -0.32      12.30       4.06
H      -1.90      11.76       3.47
H      -1.68      13.26       1.70
H      -0.21      13.95       2.39
H      -0.17      14.29       5.58
H      -0.34      15.96       3.94
H      -3.91      14.16       5.51
H      -4.03      12.75       4.48
H      -3.94      14.06       2.55
H      -4.05      15.48       3.58
H      -1.63      14.97       6.32
H      -1.92      16.46       4.56
C      -1.99      15.93       1.84
C      -1.96      12.32       6.19
C      -1.32      12.64       3.78
C      -1.25      13.68       2.62
C      -1.22      14.56       5.38
C      -3.45      13.66       4.65
C      -2.00      13.28       5.01
C      -2.03      14.96       3.01
C      -1.33      15.59       4.24
C      -3.46      14.57       3.40
O      -0.82      11.84       6.52
O      -3.10      16.21       1.27
O      -0.85      16.39       1.50
O      -3.05      12.08       6.79
