22

C       1.26       4.90       0.10
C      -4.65       4.77      -0.77
Cl      -3.21       2.80       1.29
Cl      -1.21       5.77       1.80
Cl      -5.23       4.72      -3.51
Cl       1.69       5.28      -2.63
F      -0.03       3.21      -0.95
F      -2.53       5.44      -1.56
F      -5.12       5.18       1.60
F       1.69       5.20       2.50
C      -2.49       4.00       0.26
C      -1.16       4.50       0.62
C      -3.21       4.62      -0.69
C       0.00       4.19       0.01
C      -5.54       4.94      -1.86
C       1.95       5.51      -0.97
C      -5.46       5.12       0.32
C       1.91       5.46       1.21
N       2.89       6.36      -0.52
N      -6.75       5.34      -1.43
N      -6.68       5.47      -0.05
N       2.86       6.34       0.86
