28

H      16.29      21.80       5.12
H      18.08      20.69       6.49
H      22.01      17.60       5.68
H      23.78      16.48       7.06
N      20.02      19.04       5.46
N      20.10      19.29       6.70
H      19.66      18.86       2.94
H      17.89      20.00       1.56
H      20.47      19.50       9.21
H      22.23      18.34      10.60
O      16.05      21.54       1.17
O      15.02      22.26       3.07
O      24.03      16.75      11.00
O      25.05      16.01       9.10
C      15.94      21.64       2.44
C      16.99      20.97       3.26
C      17.04      21.16       4.65
C      18.02      20.55       5.41
C      18.97      19.72       4.79
C      21.14      18.61       7.37
C      22.07      17.76       6.75
C      23.05      17.14       7.52
C      23.10      17.34       8.91
C      22.17      18.19       9.53
C      21.20      18.83       8.76
C      24.14      16.65       9.73
C      18.92      19.51       3.40
C      17.94      20.14       2.64
