16

O      26.24      12.47      25.39
C      26.94       5.35      29.33
S      25.63       9.97      26.73
S      28.45       7.17      28.04
O      25.87       4.82      29.79
C      28.23       9.65      26.60
C      25.84       7.44      28.17
C      27.21      10.52      26.22
C      26.88       6.60      28.56
Cl      29.90       9.83      26.31
C      27.72       8.54      27.31
C      26.33       8.57      27.46
O      28.14       4.91      29.47
Cl      24.19       7.20      28.50
O      28.44      12.05      24.95
C      27.31      11.77      25.46
