26

Br       4.55      15.74       4.98
Br       4.97      23.10      10.73
H       5.43      17.29       7.12
H       4.13      21.57       8.56
H       7.47      18.67      10.74
H       6.35      17.86       8.72
H       2.00      20.14       5.00
H       3.18      20.98       6.99
O       2.46      16.72       3.22
O       7.00      22.09      12.54
O       8.08      20.10      12.49
O       1.41      18.72       3.25
C       2.23      17.87       3.72
C       7.23      20.94      12.04
C       3.01      18.26       4.93
C       6.47      20.56      10.81
C       4.00      17.47       5.55
C       4.68      17.94       6.68
C       5.51      21.36      10.16
C       4.86      20.91       9.01
C       6.73      19.30      10.24
C       6.09      18.85       9.10
C       2.76      19.52       5.49
C       3.43      19.99       6.61
C       4.41      19.20       7.24
C       5.13      19.65       8.45
