32

H       5.64       0.81      23.63
C       6.58       2.55      25.47
H       4.97       0.01      21.36
H       6.56       4.96      24.29
H       5.99       7.20      18.18
H       5.77       6.58      16.57
N       6.01       6.41      17.55
O       6.36       1.37      25.92
O       7.22       3.45      26.11
H       4.73       2.05      17.04
O       4.36       3.38      15.11
H       4.73       0.44      18.95
H       6.27       6.61      22.41
H       6.05       7.05      20.04
O       5.22       5.46      15.21
C       5.05       2.83      17.72
C       5.20       2.56      19.08
C       5.50       2.06      21.87
C       5.14       1.01      20.97
C       4.99       1.25      19.63
C       5.73       1.82      23.24
C       6.13       2.86      24.09
C       4.96       4.32      15.76
C       5.68       5.18      18.04
C       5.74       4.95      19.45
C       5.53       3.64      19.96
C       5.99       6.01      20.38
C       6.10       5.78      21.72
C       6.01       4.46      22.26
C       5.67       3.39      21.36
C       6.25       4.17      23.61
C       5.28       4.11      17.18
