32

C       6.72      10.10       2.99
H       5.65      15.21       3.35
H       8.73      10.79       3.76
C       4.06      10.13       0.65
H       7.52      10.57       5.06
H       7.22       9.60       2.15
C       2.64      11.71       1.18
H       6.03       9.38       3.45
C       6.92      15.07       5.93
C       5.41       9.00      -0.93
H       9.17      12.69       5.67
N       8.57      14.17       7.07
H       2.12      12.60       1.55
N       2.85       9.76       0.21
H       6.07      15.73       5.76
N       1.95      10.75       0.53
H       4.21      14.07       1.75
H       4.53       8.56      -1.42
H       6.22       8.27      -0.92
H       5.71       9.90      -1.48
N       7.61      15.13       7.08
O       5.14       9.32       0.45
C       7.42      14.03       5.13
C       4.00      11.38       1.29
C       6.12      11.46       2.67
C       5.05      12.09       2.03
C       4.97      13.48       2.27
C       5.80      14.14       3.19
C       6.79      13.46       3.94
C       6.95      12.12       3.58
C       7.66      10.85       4.00
C       8.48      13.50       5.90
