30

H       3.42      10.16      10.25
H       1.02      10.15      10.23
H       1.24       7.08       7.17
H       3.64       7.24       7.34
H      -3.61      10.62      10.70
H      -3.39       7.55       7.64
H      -5.79       7.54       7.62
H      -6.01      10.46      10.54
C      -1.19       7.47       7.55
C      -1.18      10.24      10.32
N       3.64       8.71       8.80
N      -6.01       9.00       9.08
H      -1.79       6.68       8.03
H      -0.38       6.95       7.04
H      -1.79       7.94       6.77
H      -0.58       9.76      11.11
H      -1.99      10.75      10.83
H      -0.58      11.02       9.84
C       2.88       9.49       9.58
C       1.50       9.47       9.55
C       0.77       8.60       8.69
C       1.62       7.80       7.89
C       3.01       7.87       7.96
C      -0.72       8.48       8.57
C      -1.65       9.22       9.30
C      -3.99       9.90       9.99
C      -3.14       9.10       9.18
C      -3.86       8.23       8.32
C      -5.25       8.21       8.30
C      -5.37       9.83       9.91
