14

C      -8.29       2.47      15.18
H      -5.80       5.99      16.73
C      -5.83       5.33      15.85
H      -4.90       5.03      13.94
C      -5.02       5.67      14.82
C      -6.67       4.16      15.93
H      -6.69       3.64      16.90
C      -7.47       3.68      14.96
H      -7.59       4.19      14.00
O      -9.22       2.25      14.30
O      -8.05       1.73      16.18
O      -4.44       7.74      15.79
O      -3.21       6.97      14.05
C      -4.18       6.88      14.90
