18

C       8.24      -3.91      14.29
O       7.62      -1.89      17.77
C       8.24      -1.14      14.29
C       8.09      -1.15      16.85
O       8.85      -1.89      10.80
H       8.24      -0.05      14.29
C       8.16      -1.83      15.50
C       8.35      -3.23      13.08
O       7.81      -5.95      15.30
C       8.38      -1.15      11.73
H       8.03      -3.78      16.43
N       8.24      -5.38      14.29
C       8.32      -1.83      13.08
O       8.66      -5.95      13.28
O       8.51       0.04      16.96
H       8.44      -3.78      12.15
C       8.12      -3.23      15.50
O       7.96       0.04      11.62
