24

N       8.10       7.61       1.24
N      13.22       7.68      -1.28
H       8.56       7.46      -1.33
H      12.77       7.59       1.30
O       9.60       7.23       6.06
O      11.88       7.17       6.00
O      11.65       6.90      -6.08
O       9.39       7.25      -6.02
O       7.97       8.28       2.27
O       7.20       6.97       0.67
O      13.31       8.31      -2.34
O      14.15       7.11      -0.69
C      10.73       7.25       5.48
C      10.54       7.13      -5.50
C       9.48       7.53      -0.77
C      11.84       7.60       0.73
C      10.72       7.56      -1.45
C      10.61       7.59       1.42
C      11.88       7.62      -0.65
C       9.44       7.58       0.62
C      10.72       7.45      -2.86
C      10.60       7.52       2.83
C      10.69       7.39       4.03
C      10.62       7.29      -4.06
