34

H       3.19      36.58      18.33
H       0.91      38.61      21.42
H       0.91      32.62      19.70
H       3.19      34.65      22.79
H       1.97      36.41      21.88
H       1.97      34.82      19.25
H       0.58      41.46      19.41
H       3.32      39.49      16.40
H       3.32      31.73      24.72
H       0.58      29.77      21.71
C       1.95      30.25      23.54
C       1.95      40.97      17.58
C       1.96      39.78      18.38
C       2.65      38.60      17.93
C       2.64      37.44      18.70
C       2.03      37.44      19.96
C       1.40      38.60      20.45
C       1.31      39.73      19.65
C       2.04      36.25      20.80
C       2.04      34.98      20.32
C       1.40      32.63      20.67
C       2.03      33.78      21.16
C       2.64      33.78      22.42
C       2.65      32.63      23.19
C       1.96      31.45      22.74
C       1.31      31.49      21.47
O       1.02      29.36      23.33
O       2.86      30.08      24.45
O       1.02      41.87      17.79
O       2.86      41.15      16.67
O       0.63      40.79      20.14
O       3.31      38.57      16.75
O       3.31      32.66      24.37
O       0.63      30.43      20.98
