24

C      13.88       6.67       0.34
C      13.29       8.68       1.12
H      13.13       9.27       2.03
H      13.82       6.58      -2.03
H      12.75      10.18      -0.63
C      12.55       7.33       0.81
C      13.66       7.17      -1.12
H      14.20       5.66       0.63
N      11.03       7.88      -1.31
N      15.92       7.96       1.31
O      10.56       7.50       2.03
O      15.37      10.39      -1.85
O      11.58       5.46       1.85
O      16.39       8.35      -2.03
H      10.98       8.56      -2.07
H      10.73       6.97      -1.66
H      15.97       7.28       2.07
H      16.21       8.88       1.66
C      14.40       8.52      -0.81
C      12.30       7.87      -0.69
C      14.65       7.98       0.69
C      15.46       9.13      -1.63
C      11.49       6.71       1.63
C      13.07       9.18      -0.34
