25

H       1.92      -2.23       9.56
H       3.55      -2.22      17.36
H       2.03      -3.23      11.85
H       3.44      -3.23      15.08
H       2.77      -7.06       9.94
H       2.70      -7.05      16.98
H       2.61      -5.89       7.76
H       2.86      -5.88      19.17
C       2.09      -3.29       9.70
C       3.38      -3.29      17.22
C       2.17      -3.85      10.97
C       3.30      -3.85      15.96
C       2.44      -5.23      11.08
C       3.03      -5.22      15.84
C       2.58      -5.99       9.91
C       2.89      -5.98      17.01
C       2.49      -5.34       8.68
C       2.99      -5.33      18.24
C       2.60      -5.82      12.40
C       2.87      -5.82      14.53
N       2.27      -4.01       8.58
N       3.21      -4.00      18.35
N       2.65      -7.08      12.78
N       2.82      -7.07      14.16
O       2.74      -4.96      13.46
