28

H      22.37      13.93       0.34
H      21.68      12.30       0.48
H      23.44      12.53       0.55
O      25.51      13.87       1.90
O      24.20      15.72       1.60
H      19.33      12.19       2.84
H      20.37      11.51       1.58
H      20.30      10.74       3.17
O      19.44      12.96       5.71
O      20.64      11.02       5.83
H      22.12      12.92       7.18
H      23.47      14.05       7.05
H      21.80      14.65       6.94
H      25.42      14.50       5.21
H      24.20      15.65       5.78
H      24.88      15.82       4.16
C      24.45      14.56       2.08
C      23.40      13.95       2.96
C      22.41      13.15       2.35
C      22.47      12.96       0.85
C      21.43      12.57       3.17
C      20.30      11.71       2.66
C      21.49      12.82       4.56
C      20.44      12.22       5.43
C      22.48      13.61       5.16
C      22.47      13.82       6.66
C      23.45      14.21       4.34
C      24.54      15.09       4.90
