94

H      14.11       0.41       8.52
H       4.67      -0.41       8.52
H       4.67      -0.41      -8.52
H      14.11       0.41      -8.52
H      13.32       2.66       4.94
H       5.46      -2.66       4.94
H       5.46      -2.66      -4.94
H      13.32       2.66      -4.94
H      12.69      -1.63       5.01
H       6.09       1.63       5.01
H       6.09       1.63      -5.01
H      12.69      -1.63      -5.01
H      13.60       2.03       0.00
H       5.18      -2.03      -0.00
H      10.28       0.36       2.16
H       8.50      -0.36       2.16
H       8.50      -0.36      -2.16
H      10.28       0.36      -2.16
H      12.18      -0.37       3.12
H       6.59       0.37       3.12
H       6.59       0.37      -3.12
H      12.18      -0.37      -3.12
C      13.43      -2.04       7.56
C       5.35       2.04       7.56
C       5.35       2.04      -7.56
C      13.43      -2.04      -7.56
C      14.07       2.93       7.50
C       4.71      -2.93       7.50
C       4.71      -2.93      -7.50
C      14.07       2.93      -7.50
C      13.73       1.65       6.80
C       5.04      -1.65       6.80
C       5.04      -1.65      -6.80
C      13.73       1.65      -6.80
C      13.39      -0.74       6.83
C       5.39       0.74       6.83
C       5.39       0.74      -6.83
C      13.39      -0.74      -6.83
C      13.78       0.44       7.49
C       5.00      -0.44       7.49
C       5.00      -0.44      -7.49
C      13.78       0.44      -7.49
C      13.34       1.70       5.46
C       5.44      -1.70       5.46
C       5.44      -1.70      -5.46
C      13.34       1.70      -5.46
C      12.98       0.52       4.80
C       5.80      -0.52       4.80
C       5.80      -0.52      -4.80
C      12.98       0.52      -4.80
C      12.99      -0.69       5.50
C       5.79       0.69       5.50
C       5.79       0.69      -5.50
C      12.99      -0.69      -5.50
C      10.08       0.28       0.00
C       8.70      -0.28      -0.00
C      12.64       1.52       0.00
C       6.14      -1.52      -0.00
C      10.75       0.57       1.20
C       8.03      -0.57       1.20
C       8.03      -0.57      -1.20
C      10.75       0.57      -1.20
C      12.02       1.17       1.20
C       6.76      -1.17       1.20
C       6.76      -1.17      -1.20
C      12.02       1.17      -1.20
C      12.69       1.50       2.50
C       6.08      -1.50       2.50
C       6.08      -1.50      -2.50
C      12.69       1.50      -2.50
N      12.55       0.51       3.46
N       6.22      -0.51       3.46
N       6.22      -0.51      -3.46
N      12.55       0.51      -3.46
O      12.85      -3.05       7.02
O       5.92       3.05       7.02
O       5.92       3.05      -7.02
O      12.85      -3.05      -7.02
O      13.74       4.01       6.89
O       5.04      -4.01       6.89
O       5.04      -4.01      -6.89
O      13.74       4.01      -6.89
O      14.62       2.85       8.65
O       4.16      -2.85       8.65
O       4.16      -2.85      -8.65
O      14.62       2.85      -8.65
O      14.05      -2.04       8.68
O       4.73       2.04       8.68
O       4.73       2.04      -8.68
O      14.05      -2.04      -8.68
O      13.29       2.57       2.67
O       5.48      -2.57       2.67
O       5.48      -2.57      -2.67
O      13.29       2.57      -2.67
