22

H      15.43      15.45      12.94
H      19.30      18.11      11.46
C      16.83      16.31      15.05
C      17.92      17.26       9.35
H      16.54      17.23      15.59
H      17.70      15.91      15.58
H      16.01      15.59      15.13
H      17.15      17.86       8.85
H      17.98      16.33       8.77
H      18.88      17.78       9.28
O      20.33      18.34      13.56
O      18.85      18.22      15.27
C      19.20      18.02      14.06
C      15.46      15.62      10.33
O      15.56      15.87       9.08
O      14.57      14.89      10.87
C      18.22      17.36      13.14
C      16.47      16.24      11.25
C      17.12      16.60      13.60
C      17.58      17.00      10.79
C      16.29      16.05      12.63
C      18.43      17.53      11.77
