26

H      -5.79      10.15      11.14
H      -3.63       6.37       4.29
H      -5.78      10.09       4.27
H      -5.78      10.10       6.70
H      -3.63       6.43      11.16
H      -3.63       6.42       8.73
O      -4.14       7.31      13.42
O      -5.28       9.29      13.41
C      -4.71       8.30      12.83
C      -4.70       8.23       2.60
O      -5.26       9.21       2.01
O      -4.12       7.24       2.02
C      -4.70       8.28      11.34
C      -4.71       8.24       4.09
C      -5.31       9.32      10.62
C      -5.30       9.30       9.24
F      -5.93      10.37       8.65
C      -4.11       7.22       6.19
C      -4.10       7.20       4.81
C      -5.30       9.28       6.20
C      -4.10       7.24      10.62
C      -4.11       7.24       9.23
C      -4.71       8.27       8.46
C      -4.70       8.25       6.97
F      -3.49       6.15       6.78
C      -5.31       9.28       4.81
