34

C      14.25      18.47       3.87
C       2.34      18.50       3.88
C      14.47      21.41      12.72
C       2.26      21.32      12.80
C       4.35      19.60       7.26
C       6.29      19.89       8.39
C       4.31      20.20       9.44
C      12.29      19.59       7.27
C      12.34      20.26       9.43
C      10.36      19.91       8.41
C       8.93      19.91       8.43
C       7.72      19.90       8.42
C      13.74      20.99      11.55
C      13.09      20.64      10.58
C      12.97      19.22       6.08
C      13.55      18.89       5.06
C       2.95      20.90      11.60
C       3.57      20.56      10.61
C       3.66      19.25       6.06
C       3.07      18.93       5.05
N       5.70      19.58       7.22
N       5.65      20.21       9.54
N       3.60      19.90       8.33
N      13.05      19.92       8.33
N      11.00      20.27       9.54
N      10.94      19.56       7.24
O      13.97      17.30       3.44
O      15.08      19.29       3.38
O       2.68      17.37       3.39
O       1.42      19.28       3.46
O      14.22      22.59      13.14
O      15.28      20.56      13.23
O       2.51      22.50      13.21
O       1.48      20.47      13.33
