16

C       3.57       5.04      24.82
H       3.88       5.61      21.47
H       3.81       5.52      25.77
O       4.77       7.56      24.80
O       4.83       7.57      22.53
O       1.55       1.46      22.37
O       1.51       1.44      24.64
C       2.92       3.81      24.78
C       4.55       7.04      23.65
C       3.90       5.70      23.62
C       3.61       5.09      22.39
C       2.97       3.86      22.35
C       2.61       3.22      23.55
H       2.71       3.39      21.40
H       2.64       3.30      25.70
C       1.83       1.94      23.52
