14

H      10.07       5.15       7.94
H      12.53       5.15       7.37
H      10.24       8.11       7.10
H      12.35       8.12       8.13
C      14.27       7.16       7.74
C       8.33       7.18       7.59
O      14.85       8.28       7.96
O       7.76       8.30       7.41
C       9.80       7.17       7.43
O       7.75       6.09       7.91
C      10.57       6.09       7.68
O      14.85       6.06       7.46
C      12.02       6.09       7.60
C      12.79       7.17       7.83
