28

C       0.25      -3.72      12.58
C       0.32       0.71      10.11
C       2.11       1.67      20.90
H       2.21       0.67      21.30
N      -0.36      -2.78      10.40
N      -0.35      -1.61       9.75
H      -0.23      -5.56      12.72
N       1.68       2.69      21.66
H      -0.13       1.81       8.62
H       2.13       4.25      18.86
H       2.36      -1.06      16.25
H       2.10       1.72      14.92
N       1.66       3.82      20.89
C       2.08       3.51      19.65
O       0.77       1.66      10.74
O      -0.18       0.85       8.82
C       2.37       2.13      19.59
O       0.65      -3.68      13.73
O      -0.25      -4.89      12.01
C       0.18      -2.62      11.63
C       1.17      -0.65      12.90
C       2.07       0.63      15.00
C       2.37       0.03      16.20
C       0.58      -1.26      11.80
C       2.59       0.74      17.38
C       1.64      -0.08      13.88
C       2.60       1.37      18.43
C       0.21      -0.67      10.56
