28

H       6.89       5.48      12.58
H       6.84       5.38      15.07
H       2.88       7.09      15.01
H       6.60       4.58      19.25
H       2.76       6.12      21.99
H       2.67       6.36      19.50
C       4.79       5.47      23.51
C       4.96       6.05      10.90
C       4.91       6.26      12.38
C       6.02       5.82      13.13
C       5.99       5.76      14.52
C       4.83       6.17      15.21
C       3.75       6.71      14.48
C       3.80       6.76      13.09
C       4.75       6.00      16.61
C       4.69       5.77      17.81
C       4.66       5.54      19.21
C       5.77       4.94      19.85
C       5.80       4.82      21.23
C       4.74       5.31      22.02
C       3.60       5.81      21.37
C       3.55       5.93      19.99
Cl       2.44       7.47      12.29
Cl       7.16       4.02      21.94
O       5.91       5.79      24.02
O       6.10       6.13      10.34
O       3.87       5.74      10.34
O       3.69       5.36      24.13
