24

N      -0.27       4.72       6.59
C      -0.99       2.95       5.07
N      -0.71       5.89       7.06
H       1.33       0.65       4.99
C      -1.20       4.23       5.72
N      -2.25       5.07       5.60
H      -0.36      -0.38       3.39
C      -1.91       6.07       6.44
N      -3.87       9.81       6.82
H      -2.88       2.88       4.00
C      -2.66       7.31       6.63
H      -3.94       7.03       4.91
C      -3.65       7.70       5.72
H      -4.96       9.31       5.12
C      -4.22       8.96       5.84
H      -2.74      10.14       8.52
C      -2.97       9.42       7.74
H      -1.60       7.91       8.42
C      -2.34       8.19       7.68
C       0.39       1.14       4.75
N       0.17       2.32       5.34
C      -0.55       0.58       3.88
N      -1.71       1.19       3.60
C      -1.93       2.37       4.19
