48

H      10.25      15.90       2.54
H      11.13      16.55       1.13
H       8.44      18.59      -3.03
H       6.65      18.61      -3.11
H       5.74      18.36      -0.46
H       5.48      17.28      -1.85
C      10.25      16.69       1.78
C       7.52      18.71      -2.44
H       9.04      16.56      -2.29
H       7.37      16.05      -2.76
C       8.02      16.37      -1.93
C       6.09      17.44      -0.94
C       5.93      16.26       0.01
H       9.01      14.51       0.68
H      10.03      15.44      -0.45
C       9.06      15.42       0.06
C       6.66      15.02      -0.49
H       6.13      14.58      -1.35
H       6.70      14.24       0.28
N       9.76      21.45       0.94
N       8.75      20.15      -0.93
N      10.29      19.11       1.39
N       8.03      15.32      -0.94
H       7.54      20.88      -2.54
N       7.50      17.66      -1.39
H       6.67      20.22      -1.13
N       9.04      16.63       0.93
H       9.35      18.18       3.03
H      12.06      18.41       0.46
H      12.31      19.50       1.85
H      12.94      20.73      -0.09
H      11.53      20.25      -1.02
H       8.75      20.22       2.29
H      10.42      20.73       2.76
H       8.79      22.26      -0.68
H      11.14      18.16       3.11
H       7.76      21.33       0.45
H      11.66      22.19       1.35
H      11.09      22.53      -0.28
C       7.55      20.08      -1.78
C      10.27      18.06       2.44
C      11.71      19.33       0.94
C      11.87      20.51      -0.01
C       9.77      20.40       1.93
C       8.74      21.35      -0.06
C      11.13      21.75       0.49
H       4.85      16.04       0.09
H       6.27      16.53       1.02
