16

C      18.48       8.24      25.73
C      18.46       9.52      29.12
C      18.47       6.95      26.22
C      18.46      10.81      28.63
H      18.48       8.46      24.66
C      18.47       9.18      26.78
C      18.47       8.58      28.06
C      18.46       5.71      25.43
H      18.46       9.30      30.18
O      18.51       5.83      24.16
O      18.44      13.15      28.75
O      18.44      11.93      30.69
O      18.41       4.62      26.09
S      18.46       6.86      27.95
S      18.47      10.90      26.89
C      18.45      12.05      29.42
