16

S      29.34      12.54      18.86
S      26.35      15.01      20.42
O      26.69      17.43      21.90
O      28.98      17.45      21.98
C      26.72      12.58      18.89
C      28.97      14.97      20.40
C      27.81      11.84      18.42
Cl      25.07      12.22      18.66
C      28.54      13.83      19.68
C      27.15      13.72      19.61
C      27.88      15.71      20.86
Cl      30.62      15.33      20.62
O      26.71      10.09      17.32
C      27.83      10.60      17.63
O      28.99      10.16      17.33
C      27.86      16.96      21.64
