26

H      11.58      11.72      10.31
H      10.90      11.34       7.95
H      14.96      10.29       6.96
H      15.61      10.62       9.34
O      11.20       8.67       1.35
O      10.86      10.89       1.13
O      13.10      11.69      12.22
O      15.26      11.20      11.70
H      13.10       8.52       3.22
H      13.85       8.94       5.54
H      11.00      12.16       5.85
H      10.30      11.76       3.50
C      11.21       9.86       1.81
C      13.64      11.20       9.97
C      12.32      11.41       9.56
C      11.94      11.21       8.24
C      12.88      10.80       7.27
C      14.21      10.59       7.69
C      14.58      10.78       9.02
C      11.65      10.11       3.21
C      12.66       9.33       3.79
C      13.08       9.57       5.10
C      12.47      10.58       5.87
C      11.46      11.36       5.28
C      11.07      11.14       3.96
C      14.03      11.38      11.40
