16

O      10.26      13.86       6.47
O       5.78      10.97       1.96
C      10.58      12.77       5.90
C       9.59      12.17       4.94
C       7.82      10.84       3.16
C       8.46      12.85       4.42
C       8.95      10.17       3.67
C       7.61      12.17       3.55
C       9.81      10.85       4.54
C       6.81      10.24       2.23
O       7.04       9.08       1.77
O      11.65      12.10       6.08
H       6.74      12.69       3.15
H      10.68      10.34       4.94
Cl       8.06      14.49       4.75
Cl       9.37       8.54       3.32
