24

C       0.41       6.42       9.28
C       0.22       8.24       7.65
C       0.78       9.11       6.68
C      -0.02       9.91       5.88
O       3.07       8.55       8.49
O       3.13       6.30       8.55
O      -3.80       6.10       8.98
O      -3.88       8.34       9.17
H      -3.09       9.01       7.05
H       1.86       9.14       6.55
H       1.04       5.74       9.86
H      -1.45       5.67      10.10
O       0.48      10.74       4.92
O      -2.17      10.68       5.21
H      -3.11      10.49       5.37
H       1.44      10.61       4.86
C       2.50       7.42       8.48
C      -3.25       7.24       8.98
C      -1.78       7.29       8.73
C      -1.21       8.20       7.80
C      -0.98       6.38       9.42
C      -2.00       9.04       6.97
C      -1.44       9.87       6.03
C       1.01       7.35       8.45
