28

O       5.02       3.59       8.90
O       7.29      -1.14      14.22
C       5.19       1.02      12.96
O       6.58       2.75      10.96
C       4.51       3.57      10.06
C       6.52       0.68      12.82
C       4.55       1.96      11.99
H       3.48       1.21      13.96
H       5.06      -1.05      14.98
H       3.83      -0.08      15.84
H       5.52       0.49      15.72
C       5.21       2.77      11.09
C       7.46       0.05      13.75
H       7.04       1.18      12.01
C       4.70      -0.03      15.18
C       2.40       0.86      11.55
C       7.24       4.03      10.86
H       2.80       2.89      11.67
H       1.34       0.98      11.79
H       2.77      -0.06      12.02
H       2.51       0.77      10.46
N       3.14       2.02      12.08
N       4.33       0.65      13.96
O       3.44       4.24      10.38
H       6.92       4.70      11.67
H       7.04       4.50       9.88
H       8.31       3.82      10.95
O       8.51       0.75      14.00
