68

H       3.72       1.86       9.38
H      -2.30      -1.85       7.66
H       1.73       0.76       5.70
H      -2.08      -0.72       5.64
H       1.87      -1.79       6.98
H      -2.19       1.90       7.05
H      -4.18      -1.92       9.26
H       1.74       2.64       4.11
H      -1.98      -2.48       3.92
H       2.01      -3.49       5.20
H      -2.22       3.74       5.41
H       2.15      -1.68      11.25
H      -2.80       1.76      11.01
H       1.89       1.80       7.76
H      -0.67      -3.68       9.20
H      -0.64       2.49      11.39
H      -1.61       3.60      10.35
H       0.18       3.59      10.23
C       5.98      -0.01      13.29
C      -1.14      -2.33       4.60
C       1.02      -1.93       6.32
C       1.11      -2.90       5.31
C      -1.32       2.07       6.42
C      -1.34       3.11       5.50
C       1.09      -0.99       9.51
C       2.12      -0.94      10.45
C      -1.62       1.01       9.36
C      -2.68       0.98      10.27
C      -0.20       0.00       7.49
C      -6.45      -0.11      13.16
C       1.00      -0.02       8.48
C       3.10       0.07      10.41
C      -1.46      -0.02       8.39
C      -3.61      -0.08      10.24
C      -0.20       1.23       6.55
C      -0.23       3.35       4.67
C      -0.13      -1.16       6.48
C       0.02      -3.12       4.45
C      -4.64      -0.12      11.22
C      -5.48      -0.12      12.09
C       1.97       0.99       8.48
C       4.12       0.09      11.40
C       4.98       0.06      12.26
C      -0.22       4.42       3.75
C      -0.19       5.34       2.95
C       0.07      -4.13       3.46
C       0.09      -5.01       2.62
C       0.08      -6.08       1.65
C      -0.13       6.38       1.96
C       3.00       1.05       9.41
C      -2.41      -1.04       8.38
C      -3.47      -1.09       9.28
C       0.88       1.44       5.68
C       0.89       2.49       4.77
C      -1.20      -1.35       5.58
C       0.10      -2.08       9.83
C      -0.71       2.97      10.40
O       6.32      -1.19      13.67
O      -6.89      -1.25      13.54
O      -6.77       1.03      13.64
O       6.44       1.10      13.74
O       1.21      -6.55       1.30
O      -1.24       6.84       1.54
O       1.04       6.74       1.58
O      -1.07      -6.45       1.24
O      -0.47      -2.18      10.90
O      -0.03      -3.02       8.85
O      -0.69       2.00       9.35
