22

C       6.02       9.73      14.31
C       7.83       9.50      16.16
C       5.18       8.54      14.61
S       7.82      11.56      14.30
N       5.97      14.43      10.03
H       5.04       8.42      15.69
N       5.69      10.53      13.26
H       7.52      15.53      10.89
H       7.95      13.93      12.71
C       6.93      14.62      10.96
H       4.80      11.44      11.11
C       7.17      13.70      11.98
O       8.95      10.00      16.54
C       6.39      12.54      12.07
H       4.51      13.16       9.30
H       5.66       7.62      14.24
O       7.31       8.49      16.73
C       5.41      12.34      11.08
H       4.21       8.65      14.11
C       5.25      13.30      10.09
C       6.54      11.54      13.12
C       7.16      10.13      15.00
