22

H       8.61      13.89       7.46
H       6.38      18.85      10.49
H       8.06      11.43       7.52
H       6.93      21.31      10.43
H       5.20      11.97      10.45
H       9.79      20.76       7.50
H       5.62      14.46      10.54
H       9.37      18.28       7.42
C       7.85      13.50       8.14
C       7.14      19.23       9.82
C       7.55      12.15       8.16
C       7.44      20.59       9.79
C       5.94      12.45       9.81
C       9.05      20.28       8.15
C       6.17      13.82       9.85
C       8.82      18.92       8.10
C       7.14      14.37       8.99
C       7.85      18.36       8.96
C       7.39      15.77       8.98
C       7.60      16.97       8.97
N       6.60      11.64       8.97
N       8.39      21.10       8.98
