53

C       2.27      17.43      14.50
C       1.31      16.73      13.78
H       2.64      18.22      18.12
C       1.19      18.40      12.17
H       3.80      19.06      22.21
C       2.16      19.15      12.83
H       5.77      21.06      18.92
C       1.83      17.33      21.87
C       0.74      16.30      21.86
H       3.66      20.54      14.52
C       0.15      15.87      20.67
H       4.76      19.17      14.43
H       2.68      17.01      15.41
C      -0.85      14.90      20.72
C      -0.71      14.75      23.02
H       0.95      15.75      14.10
C       0.29      15.72      23.06
H       0.73      18.74      11.25
C       6.55      21.72      21.18
H       2.50      20.10      12.41
H       2.72      16.94      22.38
C       7.42      22.22      22.29
H       1.49      18.24      22.40
C       7.44      21.69      23.58
C       8.34      22.21      24.51
H       0.47      16.27      19.71
H      -1.33      14.53      19.81
C       9.16      23.73      22.97
H      -1.07      14.26      23.92
C       8.30      23.27      21.99
H       0.74      15.99      24.02
N       0.78      17.21      12.64
H       7.20      21.32      20.38
N      -1.28      14.36      21.87
H       5.97      22.55      20.74
N       9.19      23.20      24.21
H       6.75      20.90      23.87
H       8.38      21.82      25.53
H       9.87      24.54      22.79
H       8.31      23.72      21.00
O       5.41      20.58      16.51
C       4.24      19.66      18.39
O       3.60      19.24      16.16
C       3.27      18.76      18.83
O       2.13      17.65      20.51
C       3.11      18.54      20.20
O       5.65      20.70      21.64
C       3.91      19.21      21.13
C       4.88      20.11      20.67
C       5.04      20.36      19.31
C       4.50      19.89      16.95
C       3.75      19.47      14.74
C       2.70      18.67      14.02
