32

O      27.14       8.23      12.01
O      27.59       9.31      10.05
H      26.92      17.90      18.45
H      27.81      19.94      14.74
H      26.92       9.69      13.95
H      27.81      11.73      10.24
O      27.14      20.33      18.64
O      27.59      21.40      16.68
H      27.83      16.88      12.96
H      26.90      14.76      16.83
O      27.86      17.80      13.28
O      26.87      15.52      17.43
O      27.86      14.11      11.26
O      26.87      11.83      15.41
H      27.82      14.88      11.86
H      26.90      12.75      15.73
C      27.36       9.28      11.31
C      27.36      20.35      17.38
C      27.36      19.04      16.66
C      27.11      17.87      17.38
C      27.11      16.65      16.72
C      27.36      16.59      15.32
C      27.62      17.80      14.62
C      27.61      19.02      15.29
C      27.36      15.36      14.64
C      27.36      14.28      14.05
C      27.36      13.04      13.37
C      27.11      11.83      14.07
C      27.11      10.61      13.40
C      27.36      10.59      12.03
C      27.61      11.76      11.31
C      27.61      12.98      11.97
