26

H       3.87       0.82       9.55
H       7.88      -1.03       8.81
H       3.92       3.31       9.62
H       7.87      -3.51       8.71
H       7.75       3.31       7.70
H       3.64      -3.49       8.07
H       7.68       0.83       7.52
H       3.63      -1.00       8.13
O       4.75       5.54       8.87
O       6.89      -5.72       8.58
O       7.00       5.52       8.56
O       4.66      -5.75       8.18
C       5.87       4.95       8.71
C       5.76      -5.16       8.38
C       4.71       1.36       9.11
C       6.95      -1.56       8.63
C       4.74       2.75       9.17
C       6.95      -2.95       8.58
C       5.84       3.46       8.66
C       5.75      -3.66       8.39
C       6.91       2.75       8.09
C       4.56      -2.94       8.23
C       6.86       1.36       8.01
C       4.56      -1.55       8.27
C       5.77       0.64       8.53
C       5.76      -0.83       8.47
