34

C      30.86      19.43       6.82
C      29.98      18.77       7.69
C      30.42      17.70       8.48
C      31.76      17.28       8.41
C      32.64      17.96       7.58
C      32.23      19.05       6.78
C      33.14      19.78       5.92
C      34.31      19.33       5.40
C      35.22      20.10       4.56
C      35.24      21.51       4.57
C      36.11      22.25       3.78
C      37.02      21.57       2.96
C      37.03      20.17       2.94
C      36.13      19.42       3.70
C      38.01      22.30       2.12
C      29.43      17.04       9.38
H      29.38      20.57       6.00
H      30.83      20.62       5.15
H      28.94      19.07       7.75
H      32.09      16.45       9.03
H      33.69      17.68       7.57
H      32.83      20.80       5.66
N      30.39      20.49       6.05
H      34.60      18.30       5.61
N      36.17      18.03       3.64
H      37.75      19.66       2.29
H      35.28      17.55       3.77
H      36.70      17.66       2.86
H      34.57      22.04       5.25
H      36.11      23.34       3.80
O      37.88      23.56       1.99
O      38.93      21.58       1.58
O      29.77      15.95       9.96
O      28.30      17.63       9.50
