32

N      19.16      18.56      16.29
H       5.86      21.31      15.30
H      17.69      17.14      16.88
H       5.92      17.64      17.59
H      12.41      18.42      12.85
H      17.62      20.73      14.46
H      10.74      16.59      14.23
H      12.59      20.72      16.12
H      10.91      18.89      17.50
H      12.47      16.74      16.48
H      10.86      20.57      13.86
C      11.26      18.78      16.47
C      11.16      17.51      14.65
C      12.16      19.81      15.70
C       7.72      19.02      15.69
C      15.66      18.71      15.36
C      11.23      19.72      14.45
C      12.10      17.59      15.90
C      10.29      18.70      15.22
C      13.04      18.61      15.14
C       8.88      18.82      15.37
C      14.45      18.61      15.19
C       5.67      20.48      15.97
C      17.91      18.05      16.34
C       5.70      18.60      17.15
C      17.88      19.89      15.09
C       6.44      19.32      16.19
C      17.04      18.86      15.58
C      12.07      18.53      13.89
N       4.61      19.30      17.50
N      19.14      19.69      15.52
N       4.58      20.46      16.77
