26

H       1.10       7.22       8.74
H       1.15       4.75       8.97
H      -2.70       4.51       7.02
H      -2.72       6.97       6.80
O       0.36       9.30       7.60
H       0.55       2.86       9.82
O      -1.86       9.32       7.22
H       0.91       0.42       9.69
H      -1.57       0.23       6.18
O      -0.26      -1.93       6.72
H      -1.88       2.66       6.26
O       0.80      -1.83       8.67
C      -0.77       8.73       7.51
C      -0.81       7.25       7.74
C       0.27       6.61       8.37
C       0.29       5.23       8.50
C      -0.76       4.43       7.99
C      -1.86       5.09       7.40
C      -1.88       6.48       7.28
C      -0.67       2.96       8.03
C       0.10       2.29       9.00
C       0.29       0.92       8.95
C      -0.29       0.16       7.92
C      -1.10       0.80       6.98
C      -1.29       2.18       7.03
C       0.07      -1.28       7.79
