22

C       8.79       7.26       4.06
C      11.67       4.33       0.11
C      11.67       7.19       4.13
C       8.83       3.86       0.47
N       8.85       5.58       2.24
N      11.62       5.71       2.15
C       9.53       6.38       3.10
C      10.94       4.98       1.24
C      10.94       6.39       3.10
C       9.54       4.84       1.35
H       9.20       8.27       4.04
H       7.73       7.31       3.82
H       8.89       6.88       5.09
H      11.04       4.30      -0.78
H      12.60       4.87      -0.12
H      11.95       3.30       0.37
H      11.13       7.19       5.08
H      12.68       6.79       4.30
H      11.78       8.23       3.79
H       9.46       2.98       0.31
H       7.88       3.54       0.92
H       8.61       4.30      -0.51
