53

Si      12.45       0.00       6.10
H      14.06       2.16       4.81
H      15.78       2.15       3.02
H      10.83      -2.16       4.81
H       9.11      -2.15       3.02
H      14.61       1.61       7.38
H      14.60       3.33       9.17
H      10.29      -1.61       7.38
H      10.30      -3.33       9.17
H      10.29       1.61       7.38
H      10.30       3.33       9.17
H      14.61      -1.61       7.38
H      14.60      -3.33       9.17
H      10.83       2.16       4.81
H       9.11       2.15       3.02
H      14.06      -2.16       4.81
H      15.78      -2.15       3.02
C      14.44       1.21       4.44
C      15.40       1.21       3.43
C      10.46      -1.21       4.44
C       9.49      -1.21       3.43
C      13.65       1.99       7.76
C      13.66       2.95       8.76
C      11.24      -1.99       7.76
C      11.23      -2.95       8.76
C      11.24       1.99       7.76
C      11.23       2.95       8.76
C      13.65      -1.99       7.76
C      13.66      -2.95       8.76
C      10.46       1.21       4.44
C       9.49       1.21       3.43
C      14.44      -1.21       4.44
C      15.40      -1.21       3.43
C      13.94       0.00       4.95
C      15.88      -0.00       2.92
C      16.90       0.00       1.82
C      10.96       0.00       4.95
C       9.01      -0.00       2.92
C       8.00       0.00       1.82
C      12.45       1.49       7.24
C      12.45       3.43       9.28
C      12.45       4.45      10.37
C      12.45      -1.49       7.24
C      12.45      -3.43       9.28
C      12.45      -4.45      10.37
O      17.29       1.14       1.40
O       7.60      -1.14       1.40
O      13.59       4.84      10.80
O      11.31      -4.84      10.80
O      11.31       4.84      10.80
O      13.59      -4.84      10.80
O       7.60       1.14       1.40
O      17.29      -1.14       1.40
