19

C       1.01      10.16      14.08
H       4.52      11.38      17.73
N      -1.88       9.85      16.40
C       1.80      10.35      16.35
H      -2.59       9.95      15.68
C       2.86      10.57      17.35
H      -2.12      10.41      17.23
O       0.20       9.91      11.88
O       2.42      10.27      12.15
C      -0.57      10.01      15.93
O       4.03      11.03      16.90
H       0.33      10.09      17.90
H       3.06      10.60      14.59
O       2.67      10.37      18.57
H      -1.09       9.82      13.84
C       0.50      10.14      16.83
C       2.06      10.39      14.97
C      -0.29       9.98      14.56
C       1.24      10.12      12.59
