20

H       3.12      -0.71       5.07
H       6.93      -3.48       6.57
H       2.47      -4.29       5.24
H       1.91      -2.77       4.62
H       7.64       0.04       6.29
H       8.24      -1.54       6.70
C       4.86      -4.98       6.00
C       5.19       0.77       5.60
C       4.89      -3.50       5.93
C       5.15      -0.70       5.72
C       3.76      -2.73       5.51
C       6.26      -1.47       6.18
C       3.95      -1.34       5.40
C       6.09      -2.86       6.25
N       2.52      -3.27       5.26
N       7.45      -0.91       6.60
O       3.72      -5.56       5.95
O       4.08       1.39       5.47
O       6.34       1.35       5.62
O       5.98      -5.59       6.10
