30

C      10.83      11.79      26.12
Br      13.61       9.74      22.27
Cl       9.79      12.54      18.96
H       9.34       9.09      22.68
H       8.99       8.52      20.44
H       8.49      10.84      19.91
O       9.67      12.03      26.54
H       8.86      11.53      22.11
H      10.18      12.57      21.58
H      12.54       9.42      19.73
H      12.25      11.10      19.28
O      11.93      12.01      26.75
H      10.64       7.90      20.34
H      10.99       8.46      22.58
H      12.47      11.78      21.48
O      11.48       8.18      15.45
O       9.21       8.27      15.29
C      10.34       8.49      15.88
C      10.04       8.77      20.63
C       9.54      11.14      20.07
C       9.79      11.55      21.54
C      10.94      11.27      24.78
C      10.45       9.95      19.70
C      10.27       9.14      22.11
C      10.81      10.59      22.21
C      12.13      10.74      21.42
C      11.93      10.30      19.97
C      10.94      10.96      23.61
C      10.30       9.54      18.31
C      10.28       9.13      17.17
