16

O      13.50      14.65      23.39
C      12.74      14.19      21.20
O      14.71      15.44      21.62
C      11.62      13.50      21.67
C      12.95      14.32      19.82
C      10.73      12.95      20.77
C      12.05      13.76      18.91
C      10.92      13.06      19.37
C       9.89      12.42      18.49
O       8.95      11.78      19.08
O      10.02      12.56      17.23
H      11.46      13.41      22.75
C      13.73      14.81      22.14
H      13.82      14.86      19.46
Cl      12.45      13.99      17.24
H       9.85      12.40      21.11
