74

C      15.12      13.46      18.53
C      16.24      13.22      19.33
C      16.76      14.26      20.12
C      16.17      15.52      20.10
C      15.04      15.76      19.30
C      14.52      14.71      18.52
C      17.33      22.03      18.47
C      16.97      23.10      19.30
C      15.83      23.01      20.10
C      15.05      21.85      20.07
C      15.41      20.76      19.27
C      16.57      20.86      18.47
C       3.72      14.08      19.95
C       4.13      13.00      19.15
C       5.27      13.14      18.34
C       5.99      14.33      18.35
C       5.59      15.41      19.15
C       4.43      15.27      19.94
C       4.08      21.89      18.38
C       4.53      22.92      19.22
C       5.63      22.68      20.05
C       6.28      21.45      20.03
C       5.82      20.41      19.20
C       4.71      20.65      18.38
O       4.19      25.07      20.15
O       2.98      24.46      18.33
H       4.66      17.97      19.15
H       8.47      19.95      19.24
O      17.65      25.14      20.30
O      18.49      24.60      18.27
H      12.71      20.60      19.20
H      12.41      16.30      19.27
H      10.58      19.67      19.15
H      10.36      16.60      19.30
H      16.27      18.19      19.29
H       8.27      15.64      19.22
O       3.64      10.87      18.24
O       2.48      11.58      20.06
O      16.43      10.98      18.55
O      17.93      11.73      20.06
H      14.74      12.66      17.90
H      17.63      14.06      20.75
H      16.57      16.32      20.72
H      13.66      14.89      17.88
H      18.20      22.13      17.83
H      15.55      23.86      20.72
H      14.16      21.78      20.70
H      16.85      20.03      17.83
H       2.84      13.95      20.58
H       5.57      12.31      17.72
H       6.87      14.43      17.72
H       4.12      16.10      20.58
H       3.23      22.09      17.72
H       5.97      23.48      20.72
H       7.13      21.28      20.69
H       4.36      19.86      17.71
C       3.85      24.25      19.23
C      17.77      24.37      19.30
C       3.36      11.72      19.15
C      16.90      11.88      19.32
C       6.37      16.66      19.17
C       5.75      17.91      19.17
C       6.50      19.10      19.20
C       7.90      19.02      19.23
C       8.56      17.78      19.22
C       7.78      16.61      19.19
C      14.40      17.10      19.27
C      15.18      18.27      19.28
C      14.58      19.53      19.26
C      13.19      19.62      19.24
C      12.38      18.47      19.23
C      13.01      17.21      19.25
C      10.92      18.63      19.21
C      10.01      17.64      19.25
