28

N       6.58       8.47      13.87
N       5.42       8.75      13.45
C       8.51       3.16      13.14
C       3.50      14.06      14.17
C       7.99       4.55      13.31
C       4.01      12.67      14.01
H       6.24       4.16      12.13
C       6.77       4.92      12.71
C       5.23      12.30      14.61
H       5.77      13.05      15.19
C       6.27       6.20      12.86
H       5.32       6.50      12.42
C       5.74      11.02      14.45
H       6.68      10.72      14.90
C       6.99       7.14      13.62
H       8.76       7.55      14.76
H       3.24       9.67      12.56
C       5.01      10.08      13.70
O       9.57       2.81      13.76
H       9.66       5.20      14.50
C       8.22       6.78      14.19
C       3.78      10.43      13.12
O       7.88       2.35      12.40
C       8.72       5.49      14.05
C       3.29      11.72      13.27
O       2.43      14.41      13.55
O       4.13      14.87      14.92
H       2.35      12.02      12.81
