26

C       4.43       8.83       5.38
C       4.95      10.24       5.09
O       8.31       6.95       1.34
O       5.59       5.95      12.99
H       7.79       5.98       8.56
O       4.37       7.87      12.91
H       5.08      10.81       6.02
H       5.92      10.20       4.57
H       4.25      10.78       4.44
H       4.29       8.29       4.43
H       8.10       5.98       6.08
H       3.44       8.89       5.87
O       7.03       8.85       1.29
H       4.42       8.62       8.11
C       5.20       7.01      12.42
C       5.66       7.25      11.08
C       7.13       6.55       7.91
C       7.29       6.55       6.54
C       5.36       8.04       6.26
C       5.22       8.04       7.65
C       6.08       7.31       8.49
C       6.43       7.29       5.70
C       6.68       7.34       4.31
C       5.88       7.30       9.89
C       6.93       7.45       3.13
C       7.43       7.78       1.82
