16

O       7.51       7.61      17.01
H       7.54       1.99      19.58
O       7.36       8.92      18.87
Br       7.24       7.85      21.76
C       7.43       7.80      18.27
S       7.51       5.05      18.31
S       7.33       4.31      22.41
C       7.42       1.53      22.40
O       7.34       1.69      23.67
C       7.35       6.47      20.49
C       7.48       2.87      20.22
C       7.42       6.59      19.11
C       7.42       2.77      21.60
C       7.46       4.22      19.82
C       7.38       5.12      20.90
O       7.50       0.43      21.76
