32

H       6.33      15.16      22.56
H      10.62      15.16      22.56
O       7.34      13.77      24.28
H      10.62      21.67      15.79
O       9.61      13.77      24.28
H       6.33      21.67      15.79
H       5.36      16.45      20.94
H      11.60      16.45      20.94
O       9.61      23.31      14.32
O       7.34      23.31      14.32
H      11.60      20.11      17.15
H       5.36      20.11      17.15
O       6.11      16.85      20.47
O      10.85      16.85      20.47
C       8.48      14.13      23.83
O      10.85      19.63      17.55
O       6.11      19.63      17.55
C       8.48      22.89      14.71
C       7.26      16.39      21.04
C       9.69      16.39      21.04
C       9.69      20.18      17.07
C       7.26      20.18      17.07
C       7.26      15.51      22.13
C       9.69      15.51      22.13
C       9.69      21.24      16.16
C       7.26      21.24      16.16
C       8.48      15.08      22.67
C       8.48      21.77      15.71
C       8.48      16.85      20.47
C       8.48      19.63      17.56
C       8.48      17.77      19.41
C       8.48      18.61      18.52
