25

C      -1.92       6.00      12.83
C      -0.69       6.01      14.58
H      -4.03       6.29       8.73
H       1.41       6.30      18.69
H      -2.71       7.31      10.58
H       0.09       7.31      16.84
H      -2.92       3.46      12.58
H       0.31       3.47      14.83
H      -4.28       2.64      10.64
H       1.67       2.65      16.78
N      -4.22       4.44       9.62
N       1.61       4.45      17.80
N      -1.71       7.26      13.14
N      -0.91       7.26      14.27
O      -1.30       5.15      13.71
C      -3.78       5.71       9.62
C       1.17       5.72      17.80
C      -3.04       6.27      10.65
C       0.43       6.28      16.77
C      -2.71       5.46      11.74
C       0.10       5.46      15.68
C      -3.15       4.12      11.75
C       0.54       4.13      15.67
C      -3.91       3.67      10.68
C       1.30       3.67      16.74
