17

H       7.04       7.50       2.62
H       5.81       2.01       3.67
H       6.79       6.14       4.46
C       5.81       2.18       0.96
C       6.30       4.05       4.21
H       6.37       4.76       0.38
C       6.02       3.02       3.31
C       6.57       5.34       3.74
C       6.33       3.77       5.69
C       6.58       5.61       2.37
O       6.84       6.85       1.88
O       5.43       1.06       1.41
O       6.74       4.76       6.42
O       5.97       2.64       6.11
O       6.02       2.43      -0.28
C       6.05       3.29       1.93
C       6.33       4.58       1.46
