38

H      -1.58      11.69       2.71
H      -3.09      10.12       1.56
H      -5.77      10.45       4.95
H      -4.13      12.00       5.98
H      -6.40       8.97       3.17
H      -4.58       8.96       0.69
H      -2.05       7.68       2.27
H      -5.14       7.61      -1.10
H      -1.29       2.02      -2.71
H      -5.58       3.60      -1.56
H      -2.90       3.27      -4.95
H      -4.54       1.72      -5.98
H      -2.26       4.74      -3.17
H      -4.09       4.75      -0.69
H      -6.62       6.03      -2.27
H      -3.53       6.10       1.10
C      -2.52      11.38       3.18
C      -3.37      10.50       2.54
C      -4.58      10.12       3.15
C      -4.84      10.68       4.42
C      -3.94      11.55       5.00
C      -5.54       9.22       2.55
C      -5.44       8.69       1.30
C      -6.37       7.77       0.67
C      -1.77       7.33       1.27
C      -6.06       7.28      -0.62
C      -6.15       2.34      -3.18
C      -5.30       3.22      -2.54
C      -4.09       3.59      -3.15
C      -3.82       3.04      -4.42
C      -4.73       2.16      -5.00
C      -3.13       4.50      -2.55
C      -3.23       5.02      -1.30
C      -2.30       5.94      -0.67
C      -6.90       6.39      -1.27
C      -2.60       6.43       0.62
N      -2.79      11.91       4.39
N      -5.88       1.81      -4.39
