39

H       7.06       8.70       3.50
H       4.08       6.33       6.70
H       3.52       6.40       4.28
C       6.95       7.17      10.63
C       6.52       6.00       9.94
C       6.31       6.08       8.55
C       6.28       7.34       7.91
C       6.52       8.53       8.63
C       6.92       8.42       9.97
C       6.77       8.07       5.55
C       6.44       8.14       4.21
C       4.44       6.85       4.64
C       4.76       6.82       5.99
C       5.93       7.41       6.47
C       5.28       7.52       3.74
C       4.83       7.75       2.34
C       6.26       4.69      10.63
C       6.19       4.81       7.74
C       6.29       9.90       8.04
C       8.43      10.18      10.43
H       5.80       3.98       9.95
H       7.17       4.24      11.04
H       5.61       4.83      11.50
O       5.37       8.69       1.69
H       6.91       4.06       8.10
H       5.19       4.35       7.80
H       6.40       4.99       6.68
O       3.86       7.01       1.91
H       6.02      10.60       8.84
H       7.18      10.30       7.53
H       5.48       9.88       7.30
H       8.47      10.61       9.41
H       9.24       9.46      10.57
H       8.54      10.99      11.17
O       7.25       6.02      12.69
O       8.46       7.89      12.35
H       7.69       8.52       5.91
O       7.17       9.56      10.70
C       7.56       7.03      11.99
