32

O       6.01      12.95       1.47
O       3.75      12.89       1.56
H       2.86      13.85       3.55
H       2.64      15.62       5.30
H       6.72      16.81       4.52
H       2.38      19.75       7.48
H       6.32      20.45      10.41
H       6.47      18.84       8.51
H       7.35      14.18       2.11
H       8.01      15.54       2.99
H       1.89      22.12      10.17
H       1.20      21.36       8.75
C       4.28      21.91      11.20
C       4.88      13.32       1.97
C       4.88      14.33       3.04
C       3.69      14.52       3.77
C       3.56      15.51       4.73
C       4.67      16.35       4.99
C       5.87      16.16       4.30
C       6.02      15.15       3.33
C       4.57      17.38       5.97
C       4.48      18.24       6.83
C       4.42      19.20       7.87
C       3.24      19.91       8.12
C       3.14      20.82       9.20
C       4.29      21.01      10.04
C       5.47      20.30       9.75
C       5.56      19.41       8.70
N       7.20      15.01       2.68
N       1.98      21.51       9.37
O       5.40      22.26      11.72
O       3.14      22.30      11.65
