40

H       5.74      -0.81      10.44
H       4.93      -0.54       7.49
H       7.72      -6.35      10.07
H       8.30      -4.86      10.70
H       7.61      -3.15      11.63
H       8.20      -2.25      10.35
H       3.53      -6.33       7.89
H       2.91      -4.83       7.35
H       3.53      -2.89       6.67
H       2.67      -2.61       8.05
H       7.27       0.39       9.94
H       8.05       1.87      10.01
H       7.26       3.59      11.04
H       6.85       5.06      10.33
H       3.15       0.35       7.32
H       3.04       1.67       6.29
H       2.99       5.03       7.68
H       2.35       3.53       7.21
C       4.65      -4.66       8.36
C       4.60      -3.25       8.38
C       5.51      -2.56       9.21
C       6.46      -3.30       9.94
C       6.52      -4.70       9.77
C       5.49      -1.11       9.42
C       5.20      -0.18       8.48
C       4.18       1.99       7.96
C       5.17       1.27       8.65
C       6.12       1.98       9.41
C       6.05       3.39       9.44
C       4.17       3.40       8.04
N       5.61      -5.37       9.02
N       5.10       4.08       8.75
N       7.49      -5.41      10.42
N       7.36      -2.62      10.80
N       3.73      -5.36       7.61
N       3.60      -2.55       7.63
N       7.17       1.38      10.14
N       7.01       4.06      10.17
N       3.13       1.36       7.26
N       3.19       4.08       7.35
