36

H      -6.36       5.12      10.04
Cl      -9.88       1.79      12.76
Cl      -5.23       3.70      12.73
H      -7.53       9.00      11.91
O      -7.78       9.90      11.63
H      -8.46       3.91      14.37
H     -11.64       8.73       9.42
H      -7.66       3.22       8.02
O      -7.09      -1.96       9.02
O      -8.38       4.63      13.72
O      -7.49       2.57       8.73
H      -7.61      -1.21       9.38
H      -3.25      -0.97      11.34
H     -10.08       3.58      10.04
C     -10.80       9.23       9.89
C      -4.02      -1.39      10.70
C      -9.72       8.68      10.60
C      -5.38      -1.02      10.57
C      -8.13       4.10      12.48
C      -8.79       2.81      11.86
C      -6.10       0.09      11.04
C      -9.37       7.35      10.85
C      -6.73       3.67      11.87
C      -7.39       2.35      11.27
C      -7.05       4.45      10.56
C      -8.45       4.90      11.15
C      -7.73       3.17       9.96
C      -9.12       3.59      10.55
C      -6.78       1.07      11.26
C      -8.96       6.21      11.04
C      -5.86      -1.90       9.57
C      -8.95       9.82      10.94
N      -3.74      -2.39       9.86
N      -4.88      -2.72       9.16
N      -9.51      10.93      10.47
N     -10.67      10.56       9.81
