16

C       3.66      13.24       4.81
O       5.77       8.10       7.44
C       5.79       9.10       6.69
H       5.54      11.35       5.15
O       2.62      14.03       4.83
C       4.60      10.01       6.57
H       1.58      12.47       6.38
O       4.68      13.46       4.12
C       4.64      11.14       5.74
H       1.45      10.44       7.83
C       3.56      12.02       5.67
H       3.42       8.87       7.94
C       2.41      11.77       6.44
O       6.82       9.47       5.98
C       2.35      10.63       7.25
C       3.44       9.76       7.31
