27

H       4.82      14.69       9.04
H       5.18      16.99       8.15
H       5.58      17.35       5.72
H       5.66      15.39       4.18
H       5.60      13.18       3.77
H       5.99      11.17       3.12
H       5.49       9.74       4.10
H       3.05       9.11       4.20
H       0.85       9.19       2.95
H       0.53      10.97       1.21
H       4.37      12.41       1.76
C       5.05      13.72       7.13
C       5.01      14.86       7.98
C       5.20      16.13       7.47
C       5.43      16.34       6.10
C       5.48      15.25       5.25
C       5.29      13.94       5.74
C       5.35      12.87       4.79
C       5.22      10.76       3.79
C       3.89      10.74       3.07
C       2.88       9.83       3.40
C       1.66       9.88       2.72
C       1.48      10.86       1.75
C       3.62      11.68       2.07
N       5.15      11.60       5.01
N       2.44      11.75       1.43
O       4.90      12.53       7.66
