26

C      11.60      23.06      18.70
C      12.63      24.22      18.68
C      13.51      24.17      19.95
C      14.23      22.81      20.00
C      13.20      21.66      20.04
C      11.77      22.23      20.00
C      11.56      23.16      21.21
C      12.60      24.31      21.19
O      10.91      20.20      19.09
O       9.77      21.18      20.79
H      10.58      23.45      18.65
H      11.74      22.39      17.84
H      13.28      24.14      17.80
H      12.12      25.19      18.63
O      15.43      25.18      18.98
H      14.88      22.78      20.89
H      13.33      20.98      19.19
H      13.32      21.06      20.95
O      14.40      26.28      20.67
H      14.89      22.73      19.12
H      13.22      24.30      22.10
H      12.10      25.28      21.17
H      10.54      23.55      21.20
H      11.65      22.57      22.14
C      10.74      21.11      19.97
C      14.52      25.30      19.87
