22

H       9.18       8.96      10.27
H       9.26      13.91       9.89
C       7.45       8.42       8.44
C       7.40      14.25       8.20
C       7.44       9.92       8.39
C       8.31      10.67       9.23
C       6.59      10.58       7.50
C       9.17      10.04      10.17
C      10.03      10.78      10.96
C       7.42      12.75       8.24
C       6.57      12.00       7.44
C       8.32      12.10       9.14
C       9.22      12.83       9.96
C      10.07      12.19      10.84
Cl       5.53      12.78       6.32
Cl       5.62       9.69       6.40
Cl      11.07       9.97      12.06
Cl      11.17      13.13      11.78
O       6.34       7.85       8.68
O       6.30      14.82       8.50
O       8.49      14.83       7.92
O       8.56       7.85       8.22
