18

C       7.72      -3.98       6.63
N       5.96      -3.11       5.14
C       6.32      -5.79       3.70
C       9.90      -3.32       9.80
O       6.62      -6.95       3.23
O       9.55      -2.18      10.28
H      10.16      -5.70       8.24
O      10.77      -4.11      10.31
O       5.39      -5.02       3.23
S       8.31      -6.28       5.57
S       7.99      -2.78       7.85
H       5.66      -2.43       5.83
H       5.31      -3.38       4.40
C       6.84      -4.08       5.52
C       9.43      -4.97       7.91
C       7.05      -5.30       4.85
C       9.22      -3.78       8.58
C       8.57      -5.09       6.79
