28

H      13.93       7.27       6.24
H      17.99      10.21       8.71
H      15.69       5.90       5.24
H      16.23      11.42       9.88
H      12.55       8.48       6.90
H      19.37       9.34       7.62
H      11.37      11.34       9.63
H      20.55       6.15       5.28
I      18.05       4.54       4.41
I      13.87      12.47      11.07
N      20.01       7.79       6.44
N      11.91       9.91       8.22
C      18.40       6.30       5.51
C      13.52      11.09       9.53
C      19.71       6.70       5.71
C      12.21      10.83       9.17
C      19.04       8.48       7.04
C      12.88       9.20       7.65
C      17.68       8.16       6.91
C      14.24       9.39       7.95
C      17.33       7.04       6.08
C      14.59      10.40       8.90
C      16.64       8.92       7.57
C      15.28       8.61       7.31
C      14.97       7.52       6.44
C      16.95       9.96       8.49
C      15.96       6.75       5.87
C      15.97      10.65       9.15
