28

C       4.22       5.38      12.90
O       8.17       5.95      18.00
C       7.79       4.87      17.45
C       4.72       1.80       8.36
O       3.64       1.43       7.81
O       8.15       3.70      17.79
C       6.85       4.99      16.29
C       4.60       2.75       9.52
O       5.90       1.44       8.02
C       6.37       6.25      15.89
O       3.34       6.25      12.90
H       6.68       7.13      16.45
C       3.34       3.22       9.92
C       5.51       6.36      14.80
H       2.46       2.91       9.36
H       5.11       7.33      14.49
C       3.23       4.08      11.01
C       5.15       5.22      14.06
H       2.26       4.48      11.32
H       5.32       3.07      13.92
C       4.37       4.44      11.74
C       5.62       3.96      14.47
H       6.52       4.27      11.89
C       5.63       3.97      11.34
H       6.81       2.88      15.91
C       6.45       3.85      15.58
H       6.72       2.78       9.90
C       5.74       3.14      10.23
