26

C       2.38      13.60       9.54
C       8.93      12.84      18.01
H       2.49      16.70      10.61
C       4.66      12.99      12.44
C       6.66      13.45      15.11
H       8.83       9.75      16.95
H       4.02      15.66      12.33
H       7.30      10.78      15.23
H       3.39      11.88      10.33
H       7.93      14.57      17.22
H       1.90      13.07       8.72
H       9.42      13.38      18.83
H       4.75      11.90      12.37
H       6.57      14.55      15.18
N       2.13      14.92       9.62
N       9.19      11.53      17.94
N       5.30      13.64      13.36
N       6.02      12.80      14.19
C       2.72      15.63      10.60
C       8.60      10.81      16.95
C       3.56      15.06      11.54
C       7.75      11.38      16.01
C       3.82      13.68      11.47
C       7.50      12.76      16.08
C       3.21      12.95      10.45
C       8.11      13.50      17.11
