27

H       1.86       0.69      20.24
H       1.18       4.88      20.89
C       2.97       3.13      19.89
H      -0.26       0.15      21.46
C       1.66       2.82      20.52
H      -0.95       4.34      22.13
C       1.24       1.49      20.65
H      -3.76       1.69      24.29
C       0.85       3.85      21.03
H       0.51       2.26      24.04
C       0.06       1.18      21.33
H      -3.61       1.80      26.79
C      -0.32       3.56      21.71
H       0.64       2.37      26.52
C      -0.68       2.22      21.88
C      -1.64       1.97      24.03
C      -2.80       1.83      24.79
C      -0.39       2.16      24.64
O       3.27       4.36      19.77
C      -2.71       1.89      26.18
O       3.69       2.14      19.54
O      -1.81       1.91      22.65
C      -0.32       2.22      26.03
C      -1.48       2.09      26.81
O      -0.25       2.15      28.87
C      -1.37       2.12      28.29
O      -2.48       2.10      28.98
