28

N       9.48       7.53      23.97
N       8.36       8.38      23.96
N       9.46       7.46      29.21
H       8.67       9.35      24.02
H       7.80       8.16      24.79
H      10.14       5.43      18.51
H      10.60       5.21      20.96
H       8.46       8.93      21.52
H       8.09       8.99      19.10
H      10.59       5.23      26.98
H      10.18       5.54      29.41
H       8.77       9.39      28.86
H       9.16       9.29      26.41
C       9.80       6.17      19.22
C      10.06       6.07      20.57
C       9.61       7.07      21.46
C       8.87       8.12      20.91
C       8.64       8.16      19.54
C      10.00       6.91      22.85
C      10.15       6.99      25.05
C       9.89       7.22      26.47
C      10.19       6.17      27.35
C       9.97       6.33      28.70
C       9.17       8.48      28.39
C       9.37       8.41      27.02
N       9.11       7.22      18.69
N      10.96       6.07      23.24
N      11.04       6.11      24.60
