18

C       7.10       1.32       1.97
S       2.53       3.69       3.63
O       1.65       4.05       7.44
H       4.96       2.22       7.15
H       3.65       3.13       0.98
C       6.00       1.85       2.76
O       4.11       2.70       7.09
O       4.53       2.70       1.04
O       6.99       1.40       0.70
O       8.09       0.82       2.63
C       3.81       2.91       5.79
C       4.83       2.49       2.34
C       2.65       3.57       5.37
S       6.12       1.73       4.50
C       4.03       2.87       3.45
C       4.60       2.52       4.68
O       0.62       4.70       5.50
C       1.57       4.14       6.17
