28

H       5.19       2.83      21.24
H       1.94       5.70      21.30
C       2.63       1.52      20.14
C       1.98       0.75      19.18
C       1.05       1.29      18.26
C       0.68       2.63      18.49
C       1.28       3.40      19.47
H       2.55      -0.54      16.49
C       2.34       2.89      20.26
N       5.02       4.88      21.76
N       3.99       5.77      21.77
H       3.37       1.04      20.77
H      -0.06       3.09      17.83
H       1.00       4.45      19.55
N      -0.15       0.21      14.92
C       4.54       3.69      21.33
N       1.03      -0.40      15.01
C       2.88       5.16      21.35
N       2.31      -0.69      19.15
N      -1.66       1.45      16.22
C       3.17       3.81      21.03
O       1.38      -1.49      18.93
O       3.49      -1.01      19.38
O      -2.40       1.48      15.18
O      -2.02       1.91      17.30
C      -0.38       0.83      16.09
C       1.57      -0.16      16.23
C       0.70       0.64      17.00
