16

C      13.50       0.41       5.54
O      12.77       5.42       1.34
O      15.01       5.57       1.77
O      14.64       0.22       6.09
H      14.21       2.34       4.91
O      12.46      -0.33       5.68
C      13.86       5.00       1.86
C      12.57       1.86       3.66
H      11.51      -0.09       3.65
C      13.43       1.61       4.68
C      11.45       0.95       3.28
C      12.68       3.08       2.87
H      11.77       3.43       2.38
C      13.83       3.76       2.65
H      14.79       3.42       3.04
O      10.51       1.33       2.58
