21

H       0.22       5.93      13.55
H      -4.98       7.28      12.74
H      -4.83       7.76      15.75
H       0.89       5.93      15.64
C      -1.74       8.42      17.04
C      -1.67       6.05      11.66
C      -2.79       7.88      14.82
C      -1.72       7.79      15.70
C      -0.66       6.96      15.23
C      -0.63       6.51      13.90
C      -1.70       6.66      13.02
C      -2.82       7.29      13.56
C      -4.30       7.13      13.58
C      -4.29       8.07      14.85
Cl      -4.51       5.34      14.10
Cl      -4.88       9.71      14.44
O      -0.62       8.67      17.58
O      -0.52       5.77      11.19
O      -2.90       8.69      17.52
O      -2.80       5.89      11.10
O       0.27       6.53      16.12
