23

C       4.66       1.46      11.18
C       4.64      -1.42      11.24
C       5.80       0.71      10.91
C       3.48      -0.68      11.58
C       5.78      -0.68      10.94
C       3.52       0.72      11.53
C       7.26       0.78      10.51
C       7.24      -0.80      10.54
H       2.61       1.28      11.79
H       7.47       1.23       9.54
H       7.93       1.25      11.26
H       7.89      -1.27      11.30
H       7.43      -1.28       9.57
H       1.64      -1.74      11.15
H       2.39      -2.18      12.68
H       1.55      -0.60      12.52
C       2.19      -1.33      12.01
O       3.52       3.54      11.27
C       4.64       2.95      11.11
O       5.76       3.52      10.87
C       4.67      -2.91      11.16
O       5.77      -3.49      11.42
O       3.59      -3.50      10.79
