33

C       2.66      13.97      11.26
C      -2.66      16.06      12.47
C       3.16      15.27      11.42
C      -3.16      15.27      11.42
C       2.95      17.52      12.57
H      -0.00      14.23      15.01
C      -2.95      13.16      10.05
H      -0.00      12.69      14.12
C       2.95      13.16      10.05
H       1.31      16.19      14.13
C      -2.95      17.52      12.57
H      -1.31      12.46      11.98
O       2.14      18.18      13.30
H       1.31      12.46      11.98
O      -2.14      12.19       9.85
H      -1.31      16.19      14.13
O       2.14      12.19       9.85
H       3.86      15.68      10.70
O      -2.14      18.18      13.30
H      -3.87      15.68      10.70
O       3.90      18.04      11.91
C      -0.00      13.78      14.00
O      -3.90      13.46       9.27
C       1.22      14.23      13.22
O       3.90      13.46       9.27
C      -1.22      14.23      13.22
O      -3.90      18.04      11.91
C       1.71      15.53      13.36
C      -1.71      13.46      12.16
C       1.71      13.46      12.16
C      -1.71      15.53      13.36
C       2.66      16.06      12.47
C      -2.66      13.97      11.26
