16

C      27.35      11.12      30.10
Br      23.01       8.03      29.52
Br      28.19      11.18      27.03
Br      24.78       9.87      31.50
Br      25.72      10.48      25.04
C      24.48       9.31      27.38
C      26.36      10.48      29.16
C      24.33       9.17      28.78
O      23.97       8.14      25.37
C      25.22       9.82      29.66
C      25.58      10.04      26.88
C      26.56      10.53      27.76
O      22.27       8.68      26.76
O      27.84      12.24      29.75
O      27.63      10.50      31.18
C      23.50       8.67      26.44
