34

H       6.69       4.98      16.50
H       6.45       2.49      16.45
H      10.74       2.15      16.38
H       6.12      -1.97      16.66
H      10.29      -4.62      16.61
H      10.42      -2.13      16.48
C      11.39       4.73      16.42
C       5.58      -4.58      16.78
H      12.13       3.92      16.31
H      11.53       5.46      15.61
H      11.61       5.27      17.36
H       5.31      -5.11      15.85
O       7.69       7.00      16.83
O       9.89       7.12      16.34
H       5.54      -5.33      17.57
H       4.82      -3.81      16.97
O       9.36      -6.72      16.90
O       7.16      -6.87      16.40
C       8.81       6.47      16.56
C       8.22      -6.20      16.65
C       8.82       4.97      16.48
C       7.57       4.34      16.48
C       7.43       2.96      16.45
C       8.59       2.15      16.43
C       9.85       2.78      16.41
C      10.00       4.17      16.43
C       8.47       0.74      16.45
C       8.34      -0.47      16.49
C       8.27      -1.88      16.54
C       7.03      -2.56      16.63
C       6.95      -3.96      16.67
C       8.15      -4.70      16.64
C       9.38      -4.02      16.59
C       9.45      -2.64      16.53
