44

H       7.31       7.21       1.48
H      13.98      11.35       3.09
H      12.94      10.47      -1.54
H       6.36       6.03      -0.41
H       6.53       5.26      -2.78
H       9.86       7.86      -3.41
H      12.03      10.21      -3.44
H       8.97       8.73       2.42
H      15.34      11.29       1.33
H       9.81      13.37       2.92
H       9.06      12.81       1.39
H       8.07      13.02       2.85
H       8.52      10.63       2.42
H       9.21      11.14       3.97
C      11.81      11.59       4.55
C       8.99       8.02      -1.41
C       8.01       7.42      -0.56
C       8.41       6.01      -4.59
C       9.90       9.01      -0.87
C       9.85       9.31       0.52
C       8.91       8.61       1.34
C       8.00       7.73       0.82
C      10.97       9.62      -1.63
C      12.07      10.13      -0.97
C      12.08      10.34       0.44
C      10.85      10.16       1.14
C      13.23      10.81       1.15
C      13.10      11.10       2.50
C      10.67      10.80       2.41
C      11.00       9.96      -3.08
C       8.23       6.54      -3.21
C      14.57      11.00       0.57
C       9.30      11.23       2.88
C       9.05      12.70       2.48
C      11.83      11.17       3.11
C       7.11       6.45      -1.08
C       7.20       6.02      -2.38
C       9.10       7.51      -2.73
O      10.03      10.10      -3.82
O      14.89      10.87      -0.61
O      12.70      11.05       5.29
O       9.40       6.47      -5.27
O      10.93      12.44       4.92
O       7.56       5.14      -4.99
