10

O       3.89      16.92       1.58
C       2.37      13.37       7.85
O       1.61      16.91       1.53
C       2.74      16.65       2.05
C       2.41      14.06       6.59
C       2.51      14.67       5.53
C       2.61      15.34       4.36
C       2.70      15.94       3.31
O       3.50      13.12       8.38
O       1.22      13.10       8.32
