13

C      -1.47       5.19       5.24
O      -1.12       6.32       8.16
H      -1.56       3.33       8.07
C      -0.55       5.18       8.28
O      -1.71       7.20       3.96
C      -2.10       6.55       4.97
O       0.40       4.96       9.09
H      -1.55       4.58       4.33
O      -2.99       6.99       5.77
C      -1.07       4.05       7.39
N      -2.05       4.51       6.41
H      -0.21       3.55       6.91
H      -0.39       5.36       5.38
