52

C      -1.12      -3.03      10.02
H      -2.78       1.35       0.88
C      -0.20      -2.80       8.99
H      -4.23       1.77       2.85
C      -0.59      -2.21       7.80
H      -3.75       0.49       5.00
C      -0.69      -3.64      11.30
H      -0.49      -1.42       2.94
C      -1.59      -4.36      12.11
H      -0.95      -2.08       5.18
C      -1.19      -4.92      13.31
H      -3.20      -2.82      10.57
C       0.14      -4.77      13.77
H       0.84      -3.10       9.12
C       1.06      -4.04      12.98
H       0.15      -2.03       7.02
C       0.63      -3.50      11.77
H      -2.62      -4.49      11.79
C      -4.31      -1.65       8.39
C       2.48      -3.83      13.43
H      -1.92      -5.46      13.92
H       1.34      -2.92      11.18
C       0.00      -6.26      15.57
C       0.39      -6.71      16.91
H      -4.94      -2.05       9.19
C       1.44      -6.14      17.64
H      -4.41      -0.56       8.36
C       1.72      -6.61      18.91
H      -4.68      -2.04       7.43
H       2.64      -4.28      14.41
C       0.92      -7.62      19.45
H       3.19      -4.29      12.72
C      -0.34      -7.74      17.51
N      -1.56      -0.02       1.83
H       2.73      -2.76      13.47
N      -2.34      -1.13       6.44
H      -0.82      -6.83      15.10
N       0.58      -5.26      15.00
H       2.02      -5.33      17.18
N      -0.09      -8.18      18.76
H       2.54      -6.20      19.51
H       1.10      -8.03      20.45
H      -1.17      -8.21      16.98
C      -2.59       0.84       1.82
C      -3.41       1.06       2.93
C      -3.15       0.35       4.10
C      -2.10      -0.57       4.12
C      -1.33      -0.72       2.95
C      -1.75      -1.34       5.31
C      -1.92      -1.81       7.58
C      -2.87      -2.05       8.60
C      -2.46      -2.65       9.79
