16

C       4.16      10.65      11.54
C       3.02      12.35      13.45
C       1.25      10.64      13.99
H       2.57       9.27      12.06
C       5.98      12.32      11.09
H       4.62      13.72      12.95
H       4.62      10.00      10.80
H       2.57      12.99      14.21
O       0.80       9.49      13.70
C       2.45      11.09      13.20
C       4.73      11.90      11.81
O       6.45      13.46      11.38
O       6.45      11.48      10.24
O       0.80      11.46      14.84
C       3.02      10.25      12.24
C       4.16      12.75      12.76
