36

H       7.01      11.67       3.67
H       6.28      11.64       1.28
H       8.65       2.80      -1.14
H       6.52       8.42      -2.24
H       7.87       5.83       2.47
H       7.61       7.14      -3.33
H       8.15       7.57       3.44
H       8.80       3.04      -3.62
C       8.09       9.59       5.09
C       7.82       5.92       1.39
C       6.49       9.52      -0.42
C       8.04       4.79       0.63
C       8.35       5.32      -5.08
C       7.33       8.37       1.58
C       7.63       9.60       3.66
C       8.21       5.12      -3.60
C       6.69      10.74       1.75
C       7.69       6.09      -1.42
C       8.41       3.75      -1.62
C       7.09      10.77       3.07
C       8.49       3.88      -2.99
C       7.72       8.43       2.93
C       7.80       6.19      -2.82
C       5.87      10.64      -1.05
C       8.29       3.54       1.28
C       6.83       9.56       0.98
C       8.04       4.85      -0.81
C       7.50       7.17       0.79
C       7.32       7.22      -0.61
C       6.77       8.40      -1.18
N       5.35      11.55      -1.57
N       8.48       2.52       1.81
O       7.92      10.65       5.77
O       8.46       4.26      -5.78
O       8.61       8.50       5.50
O       8.33       6.51      -5.51
