37

C       1.68       7.72       2.03
C       0.92       8.51       1.18
C       1.41       9.74       0.72
C       2.67      10.18       1.16
C       3.43       9.40       2.01
C       0.63      10.53      -0.29
N       5.37       5.45       3.45
N       3.14       8.50       5.27
H       7.29       6.45       9.30
H       6.97       6.36       6.83
H       2.76       7.09       7.39
H       3.11       7.18       9.85
H       6.06       4.96       5.34
H       4.55       6.12       1.67
O       4.29       6.73      11.90
H       1.29       6.77       2.38
O       6.54       6.64      11.71
H      -0.05       8.17       0.83
O      -0.47      10.03      -0.71
H       3.04      11.14       0.80
O       1.14      11.61      -0.73
H       4.42       9.73       2.33
H       3.32       8.77       6.23
H       2.68       9.17       4.67
C       5.37       6.75      11.22
C       5.22       6.84       9.73
C       6.30       6.61       8.87
C       6.12       6.55       7.50
C       4.85       6.73       6.93
C       3.77       6.98       7.80
C       3.95       7.03       9.17
C       4.68       6.62       5.47
C       5.40       5.64       4.79
C       4.56       6.27       2.75
C       3.79       7.28       3.31
C       3.86       7.49       4.71
C       2.95       8.15       2.44
