16

H      26.33      12.82       3.27
H      30.28      10.30       4.88
O      25.41      11.05       1.90
O      26.62       9.12       1.90
C      30.26      12.73       5.89
C      29.23      12.17       4.95
C      27.39      10.95       3.19
C      28.10      12.88       4.49
C      28.51      10.23       3.65
C      27.20      12.27       3.62
C      29.40      10.84       4.51
C      26.40      10.33       2.26
O      31.23      11.95       6.22
Cl      27.72      14.51       4.92
O      30.10      13.92       6.29
H      28.65       9.21       3.31
