15

C       8.28       9.48       8.28
O       8.85      11.64      12.45
C       9.66       9.65       8.02
H       6.64       9.79       9.67
N       9.90       9.11       6.79
C      10.51      10.27       8.95
H      11.58      10.39       8.75
C       9.93      10.71      10.12
H      10.53      11.20      10.88
N       7.76       8.84       7.17
N       8.76       8.64       6.32
C       8.03      10.99      11.73
C       8.54      10.54      10.39
O       6.83      10.68      12.05
C       7.70       9.93       9.47
