28

H       3.45      10.15       7.12
H       1.39      10.85       6.37
H      -3.42       7.28       7.02
O       5.61       7.85       9.50
H      -3.40      10.06      10.31
H       3.36       7.16      10.21
O       0.77      10.33       6.90
O      -0.85       7.15       6.75
O       5.63       9.45       7.88
H       0.12       7.27       6.85
O      -5.63       9.44       9.51
O      -5.63       7.84       7.89
H      -0.89      10.07      10.27
H       0.86       7.19      10.15
C       2.87       9.50       7.78
C       1.47       9.51       7.75
C      -2.87       7.90       7.73
C      -1.47       7.92       7.69
C      -2.85       9.46       9.59
C      -1.46       9.46       9.56
C       2.83       7.82       9.52
C       1.43       7.84       9.49
C       5.04       8.65       8.68
C       3.55       8.65       8.66
C       0.73       8.68       8.61
C      -5.05       8.64       8.69
C      -3.55       8.67       8.67
C      -0.75       8.70       8.62
