44

C       3.26      17.63      14.57
C       3.83      17.79      15.98
H      -1.22      11.97       9.87
H      -2.56      13.01      10.43
H      -2.43       9.98      10.86
H      -3.79      11.04      11.26
H      -4.04      11.61       8.78
H      -4.25       9.88       9.09
H      -2.73      10.48       8.41
H       2.88      15.50      14.65
H       1.52      16.52      15.22
H       4.08      17.50      13.84
H       2.71      18.54      14.27
H       3.03      17.99      16.71
H       4.53      18.63      16.03
H       4.36      16.89      16.30
O       1.14      10.72      17.36
O      -0.88      17.90       7.82
O      -1.14      10.66      17.34
O       1.39      17.79       7.69
O      -1.43      12.09      11.94
O       1.74      16.42      13.15
F       1.21      13.07      10.34
F      -0.91      15.44      14.75
F      -2.30      15.26      11.95
F       2.62      13.25      13.14
C      -0.01      10.99      16.86
C       0.27      17.55       8.23
C       0.68      13.64      11.45
C      -0.37      14.88      13.63
C      -0.67      13.19      12.17
C       0.98      15.32      12.91
C      -0.01      11.77      15.66
C       0.30      16.75       9.43
C       1.40      13.79      12.83
C      -1.10      14.73      12.25
C       0.08      13.36      13.57
C       0.23      15.15      11.51
C       0.01      12.48      14.67
C       0.30      16.03      10.42
C      -2.02      12.06      10.61
C      -2.97      10.88      10.54
C      -3.53      10.71       9.13
C       2.33      16.44      14.48
