32

C       7.14       1.08       8.64
C       4.61       1.08       6.81
H       5.79       2.74       8.39
C       3.99       2.47      12.27
H       6.39       2.42      10.81
C       4.26       4.10      10.36
H       5.51       0.88      10.81
C       4.18       2.47       6.44
H       3.38       2.15      10.26
C       4.94       3.27       5.58
H       3.88       0.34       6.45
C       3.01       3.03       6.98
H       5.58       0.85       6.34
C       2.64       4.32       6.64
H       3.05       2.96      12.55
C       4.52       4.56       5.29
H       4.81       2.93      12.85
H       3.93       1.41      12.55
N       4.75       0.88       8.27
H       3.32       4.60      10.64
N       3.38       5.08       5.80
H       4.39       4.23       9.28
O       7.19      -0.19       8.76
H       5.09       4.63      10.86
O       8.13       1.82       8.40
H       5.87       2.91       5.14
H       2.38       2.48       7.68
H       1.73       4.78       7.02
H       5.11       5.21       4.65
C       5.78       1.75       8.87
C       5.53       1.89      10.37
C       4.24       2.63      10.76
