13

H       7.18       8.14       5.49
O       7.35       6.72       3.98
O       4.93       7.15       6.49
H       5.88       8.15       4.26
C       5.74       6.58       5.73
H       7.53       8.14       2.46
O       5.97       5.32       5.63
O       9.78       7.15       1.47
C       6.55       7.51       4.85
H       8.83       8.15       3.69
C       8.97       6.58       2.23
O       8.74       5.32       2.33
C       8.16       7.51       3.11
