26

C       5.02      14.60      22.28
C       5.79      14.08      21.09
C       5.88      12.71      20.85
C       6.53      12.24      19.71
C       7.09      13.14      18.78
C       7.02      14.51      19.05
C       6.37      14.98      20.19
O       4.49      13.70      23.04
C       7.70      12.63      17.54
O       4.96      15.85      22.44
C       8.42      11.42      17.53
O       9.90       9.91      13.95
C       8.98      10.93      16.35
O       9.49      11.88      12.88
C       8.86      11.64      15.15
C       8.15      12.85      15.15
C       7.58      13.34      16.33
C       9.46      11.12      13.88
H       5.42      12.02      21.55
H       6.55      11.17      19.50
H       7.48      15.23      18.36
H       6.31      16.05      20.40
H       8.55      10.87      18.46
H       9.53       9.99      16.35
H       8.05      13.40      14.21
H       7.00      14.27      16.30
