32

H       8.86       8.29      12.01
H       8.69       8.77      14.48
H      12.79       7.55      14.95
H       7.57       8.12      18.23
H      11.67       9.42      18.31
H      11.44       9.89      20.77
H      13.33       6.84      11.41
H      14.02       6.87      13.03
H       6.94       8.83      21.74
H       6.28       8.22      20.25
C       9.39       9.53      22.35
C      10.85       7.27      10.66
C      10.88       7.60      12.09
C       9.70       8.11      12.68
C       9.60       8.37      14.03
C      10.73       8.14      14.84
C      11.93       7.69      14.29
C      12.04       7.40      12.91
C       8.41       8.49      18.81
C       9.62       8.70      18.16
C      10.75       9.21      18.85
C      10.61       9.47      20.20
C       9.41       9.23      20.90
C       8.27       8.73      20.20
N      10.76       8.35      16.24
N       9.61       8.43      16.77
N      13.22       6.92      12.42
N       7.09       8.45      20.81
O      10.52       9.65      22.94
O      11.97       7.03      10.07
O       9.71       7.23      10.08
O       8.25       9.66      22.93
