74

H       5.52      -7.00      12.97
H      -8.63      -2.42       3.35
H       2.93      -3.31      10.50
H      -6.04      -6.11       5.82
H       1.98      -1.04       9.36
H      -5.09      -8.38       6.96
H       1.54      -0.30       6.51
H      -4.65      -9.12       9.81
H       2.11       2.14       6.51
H      -5.23     -11.56       9.81
H      -0.84       2.99       9.28
H      -2.27     -12.41       7.05
H      -1.54       0.59       9.40
H      -1.58     -10.01       6.92
H      -2.25       0.22       6.55
H      -0.86      -9.64       9.78
H      -4.41      -1.10       5.63
H       1.30      -8.31      10.69
H       1.28      -6.27      12.61
H      -4.40      -3.15       3.71
H       3.24      -6.94      13.99
H      -6.35      -2.48       2.33
H       5.82      -6.35      10.58
H      -8.93      -3.07       5.74
H       3.87      -5.66       9.23
H      -6.98      -3.76       7.10
C       4.66      -6.70      12.37
C      -7.77      -2.72       3.95
C       1.13      -4.24       9.54
C      -4.24      -5.18       6.79
C       2.05      -3.18       9.88
C      -5.16      -6.24       6.44
C       1.56      -2.04       9.32
C      -4.68      -7.38       7.01
C       0.35      -2.40       8.63
C      -3.46      -7.02       7.70
C      -0.47      -1.48       7.98
C      -2.65      -7.94       8.35
C      -0.05      -0.05       7.96
C      -3.06      -9.37       8.36
C       0.99       0.40       7.15
C      -4.11      -9.82       9.18
C       1.31       1.75       7.14
C      -4.42     -11.17       9.18
C      -0.34       2.23       8.68
C      -2.78     -11.65       7.65
C      -0.72       0.89       8.74
C      -2.39     -10.31       7.58
C      -1.66      -1.80       7.35
C      -1.45      -7.62       8.98
C      -2.48      -0.83       6.66
C      -0.63      -8.58       9.66
C      -3.57      -1.50       6.19
C       0.46      -7.92      10.13
C      -3.42      -2.88       6.58
C       0.30      -6.53       9.74
C       1.26      -5.55      10.00
C      -4.37      -3.87       6.32
C       2.44      -5.92      10.83
C      -5.56      -3.50       5.50
C       2.28      -6.29      12.17
C      -5.39      -3.13       4.15
C       3.38      -6.67      12.94
C      -6.49      -2.74       3.38
C       4.83      -6.33      11.04
C      -7.94      -3.09       5.29
C       3.73      -5.94      10.27
C      -6.84      -3.48       6.05
N       0.09      -3.75       8.76
N      -3.21      -5.66       7.57
N      -2.23      -3.06       7.28
N      -0.88      -6.36       9.04
N       0.67       2.66       7.89
N      -3.78     -12.08       8.43
