16

C      18.75       9.78       3.97
C      18.65      13.40       4.21
C      18.70       9.70       5.35
C      18.70      13.49       2.83
C      18.67      12.05       4.63
C      18.73      11.13       3.55
C      18.70       8.47       6.16
S      18.63      11.24       6.15
S      18.77      11.94       2.03
O      18.78      14.55       0.75
O      18.78       7.36       5.53
O      18.62      15.82       2.65
O      18.62       8.63       7.43
C      18.70      14.71       2.02
H      18.79       8.91       3.33
H      18.61      14.28       4.85
