40

H      -2.27       7.06      12.21
H      -2.10       8.33      10.97
H       0.01       7.59      13.08
H       0.23       8.81      11.82
H      -1.68      10.16      12.76
H      -0.44       9.89      14.00
H      -1.94       8.94      14.01
H      -2.23      11.60       9.26
H      -3.85      10.90       9.52
H       1.67       6.69      10.36
H      -2.90      12.05       6.84
H      -4.56      11.62       7.26
H      -4.56      13.43       9.06
H      -4.26      14.11       7.45
H      -2.91      13.88       8.58
H      -5.28       9.59       8.23
H       1.60       8.16       6.48
H      -5.29       5.50       8.80
H      -0.91       8.30       6.49
H      -2.76       5.40       8.86
C      -0.33       7.06       9.61
C      -3.27       8.74       8.37
C       1.06       7.03       9.52
C      -4.67       8.70       8.35
C       1.01       7.87       7.35
C      -4.67       6.39       8.68
C      -0.37       7.93       7.37
C      -3.28       6.35       8.70
C      -1.08       7.52       8.50
C      -2.55       7.53       8.52
C      -1.54       7.61      11.60
C      -0.52       8.33      12.47
C      -1.18       9.39      13.36
C      -3.08      11.12       8.76
C      -3.63      12.03       7.67
C      -3.85      13.44       8.22
N       1.71       7.42       8.41
N      -5.34       7.54       8.49
O      -2.53       9.87       8.26
O      -0.93       6.60      10.75
