16

O      20.21      18.67      13.44
O      15.58      15.90       9.14
O      14.41      15.06      10.91
O      18.99      18.13      15.28
C      15.37      15.72      10.38
Br      16.60      16.49      15.44
H      17.62      17.14       9.78
H      15.28      15.66      13.06
H      19.23      18.15      11.41
C      19.20      18.14      14.03
C      18.17      17.49      13.15
C      16.35      16.34      11.33
C      17.04      16.78      13.61
C      17.46      17.04      10.85
C      16.15      16.21      12.70
C      18.35      17.60      11.76
