36

O       4.85      20.45      19.70
O       1.77      30.85       8.41
H       4.81      30.04      10.58
H       1.80      21.25      17.53
O       5.23      28.43      12.51
H       1.33      23.72      15.07
O       1.38      22.86      15.60
H       5.28      27.58      13.04
O       0.83      28.44       9.14
O       5.78      22.85      18.98
H       0.25      27.67       9.33
H       6.37      23.62      18.79
C       3.73      20.88      19.30
C       2.89      30.41       8.81
C       4.00      29.33      10.73
C       2.61      21.97      17.38
C       4.12      28.37      11.74
C       2.49      22.93      16.37
C       3.09      27.40      11.92
C       3.53      23.90      16.19
C       1.99      27.42      11.00
C       4.62      23.88      17.11
C       1.86      28.41      10.02
C       4.75      22.88      18.09
C       2.90      29.38       9.89
C       3.72      21.92      18.22
C       3.43      24.83      15.07
C       3.18      26.47      13.04
I       0.59      25.84      10.85
I       6.02      25.46      17.26
N       2.06      25.87      13.52
N       4.55      25.42      14.59
N       2.20      25.05      14.53
N       4.41      26.25      13.58
O       4.03      30.77       8.38
O       2.58      20.53      19.73
