26

H      11.59       6.68      28.69
H      14.09       6.50      28.98
H      13.36       3.65      32.13
H      10.91       3.94      31.72
N      11.17       5.32      30.20
H      15.70       4.16      31.54
N      16.20       5.62      30.14
N      17.52       5.33      30.43
H      17.93       6.33      28.64
H      19.81       4.45      31.45
H      20.09       6.69      27.76
H      22.32       4.25      31.41
N      22.54       5.31      29.65
H      22.60       6.39      27.89
C      12.04       6.03      29.45
C      13.41       5.94      29.61
C      13.93       5.07      30.60
C      13.01       4.34      31.37
C      11.65       4.49      31.14
C      15.36       4.91      30.81
C      18.32       5.79      29.52
C      19.76       5.60      29.61
C      20.40       4.90      30.65
C      21.78       4.78      30.63
C      21.94       5.97      28.65
C      20.56       6.13      28.58
