15

C      18.11       7.79       5.77
N      16.96       4.84       3.72
H      20.30       4.48       3.29
H      20.30       6.54       4.77
H      16.00       6.30       4.84
O      19.27       2.68       2.09
O      16.99       2.72       2.02
O      16.96       8.23       6.10
O      19.24       8.29       6.10
C      18.12       3.15       2.40
C      18.14       4.36       3.30
C      19.37       4.93       3.66
C      19.38       6.05       4.47
C      18.15       6.57       4.91
C      16.97       5.92       4.51
