17

O      24.50      10.53      14.40
C      21.86       7.55      11.34
O      25.70       8.59      14.38
C      23.72       8.72      13.09
H      23.10      10.98      13.63
C      22.59       9.47      12.64
C      22.97       6.81      11.78
C      21.67       8.87      11.77
C      23.88       7.39      12.64
C      24.71       9.30      14.01
O      21.08       5.72      10.07
O      22.36      10.74      13.02
O      19.89       7.66      10.04
H      23.10       5.79      11.43
H      20.82       9.44      11.43
H      24.75       6.84      13.00
C      20.87       6.93      10.41
