10

C       8.28       0.71       0.51
O       6.03      -1.65      -1.17
C       6.06       0.72       0.50
O       8.31      -1.65      -1.17
C       7.17      -1.18      -0.84
H       9.33       0.50       0.37
H       5.01       0.52       0.34
N       7.86       1.75       1.25
N       6.48       1.76       1.24
C       7.17       0.01       0.01
