48

H      11.97      15.65      16.49
H      11.11      13.33      16.12
H      14.39      12.60      13.41
H      15.20      14.91      13.76
H      14.91       8.76       9.43
H      14.29       9.86      11.57
H      10.63       7.58      11.66
H      11.28       6.49       9.52
H       7.99       6.25      16.73
H       9.17       7.56      14.97
H      11.56       9.45      18.03
H      10.37       8.11      19.77
H      12.91      11.36      12.48
H      11.15       7.71      13.92
H      11.41      11.14      16.51
C      14.17      16.76      15.41
C      13.64      15.41      15.16
C      12.49      14.96      15.82
C      12.02      13.67      15.62
C      12.69      12.79      14.74
C      13.83      13.27      14.07
C      14.31      14.56      14.27
C      13.56       6.84       8.11
C      13.13       7.57       9.34
C      13.96       8.53       9.92
C      13.61       9.14      11.11
C      12.40       8.82      11.77
C      11.57       7.85      11.17
C      11.92       7.24       9.97
C       8.42       6.25      19.37
C       9.10       7.11      18.36
C       8.77       6.96      17.00
C       9.44       7.69      16.03
C      10.45       8.61      16.37
C      10.76       8.77      17.74
C      10.10       8.02      18.71
C      12.24      11.41      14.53
C      12.46      10.78      13.29
C      12.07       9.46      13.05
C      11.41       8.76      14.07
C      11.59      10.68      15.54
C      11.16       9.36      15.32
O      13.43      17.69      15.92
O      15.37      17.06      15.11
O      14.74       7.13       7.69
O      12.77       6.00       7.59
O       7.37       5.65      18.92
O       8.91       6.14      20.53
