31

H       1.32      12.36      11.77
H       1.29      14.34      13.29
H       0.54       9.59      17.23
H       0.94      15.13      17.90
H       0.10       7.26      19.47
C       1.03       9.75      12.49
C       1.18      13.34      13.69
C       1.04      10.96      13.39
C       0.47      11.61      19.93
C       0.43      10.42      19.18
C       0.57      10.52      17.79
C       0.74      11.75      17.12
C       0.78      12.94      17.92
C       0.88      11.87      15.68
C       1.03      13.17      15.08
C       1.03      14.30      15.96
C       0.92      14.22      17.30
C       0.89      10.80      14.75
C       1.19      12.24      12.85
C       0.64      12.84      19.32
C       0.66      14.07      20.19
C       0.24       9.10      19.83
O       2.15       9.26      12.17
O      -0.11       9.35      12.11
O       1.80      14.52      20.51
O      -0.47      14.55      20.50
O       0.09       8.91      21.03
O       0.24       8.07      18.93
F       1.15      15.53      15.37
F       0.76       9.51      15.19
F       0.35      11.59      21.27
