16

O       4.10       5.44      10.97
O       6.24       4.74      11.01
Cl       2.03       4.30       6.31
C       6.17       4.71       8.08
O       5.64       5.47       4.04
O       3.53       4.68       4.00
C       4.75       4.62       6.07
C       5.04       4.68       8.93
C       5.14       4.96      10.42
C       3.79       4.42       8.32
Cl       7.77       4.94       8.68
C       3.64       4.46       6.92
C       4.63       4.92       4.59
Cl       2.42       3.97       9.27
Cl       7.46       4.28       5.77
C       6.03       4.58       6.68
