32

H       4.07       6.77       5.02
H       2.10       4.22      -2.70
H       6.79       7.33       1.19
H       6.53       7.01      -1.90
H       2.94       4.97      -4.66
H       6.54       7.30      -4.37
H       3.92       4.88      -0.08
H       5.89       3.70       1.59
C       5.43       6.12       0.57
C       4.68       5.58      -0.42
C       4.74       6.15      -4.66
C       5.22       5.71       1.98
C       4.75       6.31      -6.14
C       4.59       4.43       6.07
C       4.82       4.80       4.64
C       4.50       6.12       4.27
C       4.73       6.57       2.98
C       5.51       4.38       2.35
C       5.33       3.93       3.66
C       3.71       5.26      -2.66
C       3.72       5.42      -4.04
C       5.75       6.73      -3.88
C       5.74       6.57      -2.50
C       4.73       5.82      -1.85
Br       5.75       2.11       4.00
Br       4.27       8.37       2.55
O       3.80       5.74      -6.79
O       5.45       3.68       6.62
O       5.70       6.99      -6.66
O       3.55       4.93       6.62
O       2.72       4.55      -2.03
O       6.42       7.04       0.34
