28

C       3.45       4.26      10.97
C       4.25      -0.30       9.21
H       3.03       2.08       9.44
H       5.66       3.69      12.42
N       3.94      -1.19       8.53
N       8.35       1.19       8.53
H       9.27      -2.08       9.43
H       6.63      -3.70      12.42
C       8.03      -3.01      10.94
C       8.40      -1.97      10.08
C       7.66      -0.78      10.07
C       6.54      -0.63      10.92
C       6.17      -1.69      11.75
C       6.91      -2.87      11.77
C       8.84      -4.27      10.97
C       8.04       0.30       9.21
O       3.86       5.19      11.76
O       2.42       4.30      10.22
O       8.44      -5.19      11.76
O       9.88      -4.30      10.22
H       6.99       1.58      12.40
H       5.30      -1.58      12.40
C       4.26       3.01      10.94
C       3.89       1.97      10.09
C       4.63       0.78      10.07
C       5.76       0.63      10.92
C       6.12       1.69      11.75
C       5.38       2.87      11.77
