30

C       2.37      28.86      20.10
C       2.23      30.06      19.38
C       2.38      32.62      15.39
C       2.23      31.41      16.11
C       1.12      33.72      17.17
C       1.08      32.55      17.91
C       1.12      27.75      18.32
C       1.08      28.92      17.58
C       1.63      30.10      18.12
C       1.63      31.37      17.37
H       2.68      30.97      19.78
N       3.02      28.87      21.31
H       2.68      30.51      15.71
O       0.94      25.51      19.98
H       0.65      26.84      17.94
H       0.58      28.95      16.61
N       3.02      32.61      14.18
O       2.79      26.18      21.09
H       0.65      34.63      17.55
H       0.58      32.52      18.88
O       0.95      35.97      15.51
O       2.80      35.30      14.40
H       3.34      27.96      21.64
H       3.67      29.63      21.46
H       3.34      33.52      13.86
H       3.67      31.85      14.03
C       1.84      26.38      20.25
C       1.84      35.10      15.24
C       1.78      27.68      19.56
C       1.78      33.80      15.93
