10

H       8.68       7.19       9.66
H       8.43       4.00      12.31
H      11.24       7.03       9.72
C      10.46       4.60      11.77
C       9.21       6.45      10.26
C       9.07       4.68      11.75
C      10.60       6.37      10.30
Br      11.23       3.25      12.82
N      11.22       5.44      11.06
N       8.46       5.61      11.00
