42

C       7.99       9.73       5.82
C       5.46       6.00      -5.62
H       5.47       4.91       0.32
C       5.18       5.27      -4.43
H      10.27      10.85       3.75
H       3.30       4.10      -4.02
C       5.90       8.58       5.65
C       4.78       8.23       6.61
C       7.48       7.15      -5.03
C       8.31       8.28      -5.61
N       4.43       5.86      -6.48
N       9.56      11.26       5.70
N       3.47       5.09      -5.89
N       8.57      10.73       6.50
H       6.23       7.71       5.06
H       5.61       9.38       4.95
O       7.01       9.05       6.46
O       6.47       6.80      -6.01
H       4.49       9.10       7.20
H       3.91       7.87       6.04
H       5.10       7.44       7.30
H       8.09       6.26      -4.81
H       6.98       7.46      -4.10
H       7.68       9.16      -5.81
H       9.09       8.57      -4.90
H       8.79       7.97      -6.55
H       8.72       6.77      -1.83
H       6.19       6.05       2.40
H       9.44       7.91       0.25
C       8.57       7.25       0.26
C       6.34       5.56       0.31
C       7.84       7.10       1.46
C       7.01       5.80      -0.91
C       6.75       6.20       1.47
C       8.17       6.61      -0.90
C       8.14       7.88       2.60
C       6.47       5.37      -2.14
C       5.90       5.25      -3.22
C       8.33       8.66       3.52
C       9.57      10.60       4.54
C       3.91       4.72      -4.68
C       8.59       9.58       4.54
