20

H       1.24      11.28      12.84
H       1.11       9.66      10.94
H      -4.09       9.14      11.71
H      -4.10      10.50      10.54
H      -3.97      10.82      13.63
H      -3.96      12.16      12.45
C      -1.04       8.65       9.73
C      -2.07      11.03      12.53
C      -0.87      11.48      13.06
C       0.28      10.95      12.45
C       0.21      10.05      11.39
C      -1.01       9.61      10.86
C      -2.14      10.13      11.47
C      -3.65      10.12      11.47
C      -3.56      11.15      12.66
C      -0.80      12.42      14.21
O       0.09       8.27       9.27
O      -2.19       8.29       9.30
O      -1.93      12.77      14.70
O       0.35      12.79      14.61
