30

H       9.23      12.27       5.22
H      12.32       9.28       5.22
H      12.27       9.23      12.01
H       9.28      12.32      12.01
C      10.77      10.77       3.59
C      10.77      10.77      13.63
C       9.90      11.62       5.77
C       9.90      11.64       7.17
C       9.04      12.50       7.93
C      11.65       9.93       5.77
C      11.65       9.91       7.17
C      12.51       9.05       7.93
C      11.62       9.90      11.45
C      11.64       9.90      10.05
C      12.50       9.04       9.29
O      11.73      10.16       3.02
C       9.91      11.65      10.05
O       9.82      11.39       3.02
C      10.77      10.77       5.09
C      10.77      10.77       7.90
C       9.05      12.51       9.29
C      10.77      10.77       9.32
C      10.77      10.77      12.13
C       9.93      11.65      11.45
O      10.16      11.73      14.20
O      11.39       9.81      14.20
F       8.22      13.34       9.97
F       8.21      13.33       7.25
F      13.33       8.21       9.97
F      13.34       8.22       7.25
