20

H       2.78       2.00       8.21
H       2.76      -0.49       8.34
H       8.12      -0.52       8.47
H       7.84      -0.64       6.71
H       8.15       1.99       8.29
H       7.84       1.87       6.54
C       4.91       3.65       7.89
C       4.86      -2.20       8.11
C       6.07       1.41       7.78
C       4.90       2.16       7.92
C       3.71       1.44       8.11
C       3.70       0.05       8.18
C       4.88      -0.71       8.06
C       6.05       0.01       7.85
C       7.55      -0.10       7.63
C       7.56       1.47       7.53
O       6.05       4.22       7.89
O       3.78       4.25       7.87
O       5.98      -2.79       8.06
O       3.72      -2.77       8.20
