28

H      -0.81       9.66       1.20
H      -0.34       6.88       5.01
H      -0.81       7.77       2.84
H       1.17      12.15       4.07
H       1.57      12.77       8.70
H       0.41       7.16       7.33
C       0.23      12.13       1.60
C       1.11       8.20       9.42
C      -0.42       8.75       3.12
C       0.20      11.00       2.57
C       1.43      10.65       9.07
C       1.39      11.80       8.26
C       1.09      11.69       6.91
C       0.83      10.44       6.28
C       0.80       9.30       7.16
C       0.52      10.23       4.87
C       0.03       8.95       4.45
C       0.01       7.86       5.36
C       0.42       8.01       6.65
C       0.69      11.20       3.85
C      -0.40       9.78       2.20
C       1.13       9.41       8.54
Cl       1.79      10.84      10.75
Cl       0.98      13.24       6.12
O      -0.90      12.44       1.09
O      -0.03       7.70       9.69
O       1.34      12.71       1.37
O       2.24       7.78       9.82
