34

H       3.13      11.35       8.31
H      -3.10       8.23      11.31
H       3.13       8.24      11.32
H      -3.11      11.35       8.31
H       1.24       9.47      11.94
H      -1.22      10.11       7.67
H       1.25      10.11       7.67
H      -1.22       9.47      11.94
C       5.02      10.62       9.01
C      -5.00       8.96      10.61
C       5.02       8.97      10.62
C      -5.00      10.62       9.01
C       3.63      10.64       8.97
C      -3.60       8.94      10.64
C       3.62       8.94      10.65
C      -3.60      10.64       8.97
C       2.89       9.79       9.81
C      -2.87       9.79       9.81
C       0.71       9.59      11.00
C      -0.68       9.99       8.61
C       0.71       9.99       8.61
C      -0.68       9.59      11.00
C      -1.40       9.79       9.80
C       1.42       9.79       9.80
C       5.70      11.56       8.16
C      -5.67       8.02      11.47
C       5.69       8.04      11.49
C      -5.68      11.57       8.17
N       5.73       9.80       9.82
N      -5.70       9.79       9.81
N       6.11      12.38       7.44
N      -6.07       7.21      12.20
N       6.09       7.23      12.23
N      -6.09      12.40       7.47
