17

H      20.97       3.63      29.29
C      24.17      -0.30      26.21
O      21.76      -1.81      27.36
S      23.09       1.89      27.46
S      19.67       0.21      29.20
C      18.64       2.47      30.45
O      25.05       0.58      25.88
O      24.17      -1.54      25.90
C      21.97      -0.49      27.56
C      20.81       2.57      29.12
C      23.07       0.20      27.03
C      19.72       1.90      29.63
C      21.63       1.71      28.36
C      21.14       0.38      28.32
O      17.68       1.68      30.76
H      20.96      -2.08      27.85
O      18.77       3.69      30.79
