16

O      18.56       7.32       5.51
O      18.41      15.83       2.63
O      18.39       8.60       7.40
C      18.42      13.36       4.19
C      18.47       9.65       5.32
C      18.54       9.79       3.94
C      18.44      12.01       4.61
C      18.52      11.13       3.52
C      18.48       8.43       6.13
S      18.39      11.19       6.13
S      18.57      11.95       2.00
C      18.48      13.50       2.81
F      18.61       8.76       3.08
F      18.34      14.38       5.06
C      18.48      14.72       2.00
O      18.55      14.55       0.73
