24

H       4.42       2.71       6.16
C       6.22       2.50       7.69
H       6.06       1.51       8.13
C       5.30       3.16       6.61
C       7.49       3.07       1.87
H       4.46       5.14       7.61
C       7.02       3.34       3.20
H       6.76       5.96       6.17
O       7.16       1.95       1.34
O       8.27       3.94       1.34
H       8.41       4.76       8.14
O       4.55       3.65      12.96
O       5.64       5.65      12.90
H       8.36       2.33       6.69
C       5.81       4.20      11.09
C       7.49       2.95       6.91
C       6.58       3.62       5.78
C       7.52       4.31       7.69
C       6.24       3.85       8.51
C       6.61       4.97       6.61
C       5.33       4.51       7.39
C       6.80       3.47       4.39
C       6.03       4.02       9.90
C       5.32       4.51      12.41
