51

H       3.60      14.16       1.44
H       4.22      19.06       4.85
H       4.12      13.71       7.41
H       2.09      17.32      10.14
H       2.10      17.50       7.64
H       2.28      19.57       0.32
H       2.12      17.36       1.50
H       1.46      10.13       3.36
H       1.66      12.21       4.74
H       3.88      11.16      -0.55
H       4.31      12.82      -0.39
H       4.70      13.50      10.98
H       5.09      12.86       9.43
H       4.97      22.17       3.15
H       5.27      21.19       4.53
C       2.46       9.64       0.97
C       3.19      15.47      11.66
C       3.50      21.76       1.07
C       2.51      10.93       1.67
C       3.42      20.52       1.86
C       3.20      15.48      10.19
C       3.13      12.08       1.10
C       3.15      13.26       1.86
C       3.99      20.40       3.16
C       3.81      19.18       3.85
C       3.81      14.45       9.42
C       3.70      14.51       8.02
C       2.57      16.56       9.53
C       2.56      16.66       8.15
C       2.73      19.43       1.30
C       2.63      18.21       1.95
C       1.95      11.01       2.96
C       2.06      12.16       3.73
C       2.66      13.30       3.16
C       2.80      14.56       3.93
C       3.17      18.10       3.25
C       3.05      16.82       3.97
C       3.11      15.60       7.39
C       3.03      15.64       5.92
N       2.87      15.71       3.24
N       3.13      16.84       5.32
N       2.87      14.47       5.27
N       3.65      12.08      -0.18
N       4.43      13.37      10.01
N       4.64      21.44       3.77
O       2.61      21.95       0.16
O       1.54       8.80       1.26
O       2.27      16.13      12.26
O       4.45      22.60       1.30
O       4.10      14.81      12.29
O       3.37       9.40       0.09
