14

N       8.31       5.42       5.62
H       8.39       3.99       7.13
N      11.08       5.42       5.62
N      11.06       3.88       7.39
N      11.06       6.96       3.86
H      12.03       6.73       3.63
H      10.52       7.46       3.16
H      12.03       4.11       7.62
H      10.52       3.38       8.08
H       8.39       6.84       4.11
C      10.38       6.19       4.75
C      10.38       4.64       6.50
C       8.97       6.21       4.78
C       8.97       4.63       6.46
