29

N       1.07       5.69      15.47
N       5.74      14.40      16.88
H       2.97       4.96      15.18
H       4.05       6.59      16.76
H       0.13       8.27      17.44
H      -0.77       6.57      15.84
H       2.06       8.84      18.97
H       3.64       8.13      18.68
H       3.97       9.59      16.67
H       2.38      10.31      16.93
H       3.10      11.14      19.17
H       4.62      10.31      19.04
H       5.86      12.32      19.54
H       6.90      14.38      18.61
H       4.46      14.24      15.23
H       3.35      12.20      16.01
C       2.39       5.71      15.72
C       2.97       6.63      16.59
C       2.18       7.58      17.24
C       0.80       7.56      16.96
C       0.30       6.61      16.07
C       2.78       8.58      18.17
C       3.24       9.85      17.45
C       3.86      10.83      18.44
C       4.50      12.07      17.86
C       5.52      12.72      18.58
C       6.10      13.86      18.07
C       4.76      13.79      16.18
C       4.13      12.64      16.64
