48

C       7.91       4.22      29.28
H       9.72       3.75      22.06
H      12.28       3.77      25.52
C       6.30       1.87      24.71
C       8.50       4.82      28.15
H      11.72       3.94      20.58
O      14.15       3.89      20.10
H      14.27       3.98      24.03
C       7.46       2.65      25.19
C       8.51       4.12      26.84
O       8.12       6.10      32.97
C       2.87      -0.15      23.08
C       8.60       2.78      24.38
H       5.48      -0.97      22.98
C       8.54       6.79      31.98
H       2.90       2.12      24.47
C       7.43       3.33      26.42
O      15.45       3.89      21.94
C       9.63       4.24      26.00
C       4.07       0.51      23.65
O       2.96      -1.35      22.68
H       9.56       7.71      29.64
H       7.50       4.38      31.39
C       9.68       3.58      24.77
C       8.54       6.11      30.65
O       8.92       8.01      32.03
C       5.36      -0.03      23.51
H       7.46       0.23      23.90
O       1.80       0.55      23.03
C      10.86       3.74      23.89
C       3.90       1.72      24.36
H       4.86       3.32      25.41
C      10.71       3.79      22.49
H       9.53       6.58      27.43
C      12.15       3.83      24.44
C       9.11       6.73      29.53
H      10.47       4.86      26.31
H       7.46       3.23      29.19
C       7.94       4.86      30.51
C      11.82       3.92      21.67
C       6.46       0.66      24.02
H       8.63       2.26      23.42
C      13.26       3.95      23.62
C       5.00       2.38      24.89
H       6.55       3.24      27.06
C      13.11       3.99      22.23
C       9.09       6.08      28.30
C      14.31       3.94      21.36
