30

H      13.61      15.09       8.25
N      13.16      12.12       9.77
H      10.81      13.94      11.36
H       8.65      19.81      11.49
H      11.81      11.63      11.25
N       9.09      22.76       9.92
H      10.45      23.22       8.43
H      10.96      18.73       7.75
H      10.46      18.46      12.03
H      11.79      16.41       7.70
H      11.44      20.92       8.36
H      11.29      16.14      11.98
F      14.61      12.70       8.13
F       7.65      22.19      11.58
C      13.61      13.06       8.96
C       8.64      21.82      10.75
C      13.15      14.37       8.93
C       9.11      20.52      10.80
C      12.12      14.72       9.81
C      10.13      20.15       9.91
C      11.63      13.72      10.67
C      10.63      21.14       9.04
C      12.16      12.45      10.62
C      10.09      22.42       9.08
C      11.20      16.70      11.05
C      11.05      18.17       8.68
C      10.73      18.01      11.07
C      11.52      16.86       8.66
C      10.65      18.77       9.89
C      11.60      16.10       9.84
