29

C       4.16       0.04       2.44
C       6.72       4.27       3.15
N       4.23      -1.12       2.29
H       2.13       2.29       3.13
H       2.75       1.08       4.27
O       6.30       1.54       0.82
H       3.85       1.90       1.60
H       3.41       4.52       2.94
O       1.54       4.18       4.75
H       5.24       3.28       5.93
H       4.34       1.78       6.13
H       5.73       0.64       4.62
O       7.63       1.08       2.61
H       6.80       2.02       4.73
H       4.55       5.00       4.22
H       5.26       3.78       1.73
O       6.87       5.15       3.98
O       2.69       3.66       6.64
H       7.59       3.90       2.56
C       2.53       3.67       5.38
C       3.03       1.93       3.64
C       4.10       1.49       2.60
C       4.20       4.15       3.61
C       4.76       2.47       5.38
C       3.62       3.05       4.52
C       5.50       2.06       3.00
C       5.39       3.61       2.81
C       5.77       1.73       4.48
C       6.57       1.50       2.07
