48

C       6.13      -2.65      16.77
H       7.77      -0.56       9.67
C       6.56      -2.42      15.47
C       5.04      -1.87      18.91
H       5.40       0.63      13.06
H       8.41      -2.46      13.47
C       4.69      -0.83      19.78
C       4.20      -1.08      21.06
H       5.75       0.87      15.21
C       4.04      -2.39      21.55
H       5.03       0.49      17.50
C       4.39      -3.43      20.67
H       6.26      -3.64      17.19
C       4.87      -3.18      19.39
H       6.98      -3.25      14.90
H       4.82       0.21      19.48
C       3.51      -2.67      22.90
C       3.23      -1.63      23.82
H       3.95      -0.23      21.68
H       4.30      -4.47      20.98
C       2.67      -1.90      25.06
H       5.11      -4.03      18.75
C       2.39      -3.21      25.45
H       3.45      -0.60      23.56
C       2.71      -4.26      24.58
C       3.26      -3.99      23.33
H       2.45      -1.09      25.75
C       1.71      -3.51      26.74
H       2.51      -5.28      24.89
H       3.47      -4.83      22.67
O       9.76      -3.36      11.70
O       9.67      -2.23       9.75
O       5.79       0.96       9.19
C       9.28      -2.45      10.95
O       5.38       2.21      11.00
C       8.20      -1.59      11.53
O       1.20      -2.55      27.43
C       7.53      -0.66      10.73
O       1.63      -4.73      27.14
C       6.55       0.16      11.30
C       6.21       0.02      12.66
C       6.85      -0.94      13.46
C       7.86      -1.73      12.88
C       5.87       1.16      10.44
C       6.44      -1.16      14.87
C       5.89      -0.12      15.64
C       5.47      -0.35      16.95
C       5.56      -1.62      17.54
