14

O      10.56       6.19       8.62
O      18.25       9.47       8.69
H      15.48       6.69       8.76
H      13.33       8.97       8.89
C      11.32       7.21       8.68
C      17.49       8.45       8.76
H      15.74       9.76       8.88
H      13.08       5.91       8.66
C      12.78       6.95       8.72
C      16.03       8.71       8.84
C      13.69       7.94       8.82
C      15.11       7.72       8.82
O      10.94       8.43       8.70
O      17.87       7.23       8.75
