26

H       9.67       4.65      19.96
O       8.18       5.49      18.24
H      12.64       8.82      26.00
H      11.32       8.81      23.89
C      12.42       6.71      26.35
C       8.11       6.56      18.90
C      12.20       7.90      25.64
C       8.79       6.59      20.24
H      10.68       4.57      24.34
C      11.45       7.89      24.46
H      12.02       4.60      26.45
C       8.66       7.69      21.09
C      10.91       6.69      23.96
H       9.23       8.59      22.96
C       9.58       5.50      20.63
H      10.90       4.70      22.12
C      11.13       5.50      24.69
C      13.19       6.67      27.63
C      11.86       5.51      25.87
O      13.75       7.77      28.01
C      10.16       6.65      22.70
C       9.34       7.73      22.31
O       7.53       7.65      18.53
C      10.26       5.54      21.84
H       8.03       8.52      20.78
O      13.23       5.57      28.24
