48

H       1.47      15.61      26.32
H      -2.67       7.54      34.00
H       1.54       9.29      29.41
H      -2.14      14.31      29.49
N      -2.78      12.57      27.23
N       1.71      10.45      33.36
O      -1.48      16.21      23.89
O       0.20       6.72      36.48
O       0.77      16.29      24.13
O      -2.04       6.76      36.22
H      -3.20      13.38      25.41
H       2.08       9.54      35.06
H      -2.60      11.77      27.83
H      -3.57      13.09      27.61
O       1.15       9.38      30.30
O      -2.24      13.76      30.29
H       1.47      13.65      29.30
H       2.47       9.97      32.86
H       0.98      11.54      27.37
H      -2.60      12.98      32.24
H       1.55      11.35      32.90
H      -2.53       9.64      31.15
O      -2.69      14.16      25.10
O       1.53       8.77      35.38
C      -0.39      15.91      24.46
O       1.70      14.17      28.50
O       1.20      11.00      28.16
O      -2.17      12.12      32.41
C      -0.86       7.11      35.89
O      -2.77       9.05      31.89
C      -1.61      14.22      25.93
C       0.46       8.79      34.53
C      -1.63      13.39      27.07
C       0.53       9.67      33.43
C      -0.52      13.34      27.94
C      -0.55       9.80      32.55
C       0.60      14.16      27.66
C      -1.70       9.01      32.76
C       0.61      14.98      26.54
C      -1.78       8.15      33.84
C      -0.48      15.02      25.66
C      -0.71       8.03      34.74
C       0.34      11.34      29.19
C      -1.36      11.85      31.34
C       0.34      10.48      30.29
C      -1.37      12.69      30.22
C      -0.51      10.72      31.39
C      -0.51      12.46      29.13
