29

C       2.60      -3.38       9.19
C       2.67      -2.18       9.90
C       3.97      -2.16      10.42
C       1.59      -1.12      10.12
N       1.70       2.14       8.32
N       2.95       1.66       8.03
H       4.00      -0.11       8.51
H       0.05       1.39       9.42
N      -1.43      -2.32       8.31
N      -1.87      -2.43       9.61
H      -1.00      -2.01      11.50
H       0.37      -1.66       7.40
N       1.50      -1.08      13.84
N       1.52       0.27      13.59
H       1.58       1.44      11.82
H       1.53      -2.81      12.62
N       4.64      -3.27      10.03
N       3.79      -4.03       9.27
H       1.77      -3.81       8.64
H       4.45      -1.42      11.05
C       3.09       0.45       8.62
C       1.92       0.13       9.31
C       1.07       1.22       9.09
C      -0.87      -2.02      10.42
C       0.24      -1.65       9.66
C      -0.17      -1.85       8.33
C       1.55       0.44      12.25
C       1.55      -0.80      11.61
C       1.52      -1.73      12.66
