16

C      10.31      15.56      10.14
C       5.91      17.79      12.07
C       9.09      16.08      12.32
C       5.79      17.77      13.45
C       9.21      16.09      10.94
C       7.89      16.69      12.73
C       7.11      17.17      11.66
O      10.20      15.67       8.87
O      11.28      15.02      10.77
O       4.80      18.19      15.53
O       3.73      18.87      13.62
C       4.69      18.32      14.26
S       7.14      17.01      14.25
S       7.86      16.86      10.14
H       5.15      18.23      11.43
H       9.85      15.64      12.96
