24

O      13.89       0.09       3.66
O      13.44       3.44       2.36
O      16.33       1.40       4.09
O      17.21       3.33       5.70
O      11.20       2.30       1.38
H      14.33      -0.12       4.50
H      13.10       3.49       0.29
H      14.83       3.41       0.79
H      13.89       4.92       1.04
H      16.29       0.80       3.32
H      13.87       5.40       4.11
H      13.34       5.55       5.82
H      12.22       4.87       4.58
C      13.24       2.09       2.52
C      15.14       2.08       4.15
C      16.08       3.92       5.58
C      14.97       3.20       4.91
C      12.09       1.48       1.81
C      13.26       4.94       4.91
C      13.84       3.83       1.04
C      14.03       1.43       3.42
O      12.08       0.21       1.69
O      15.80       5.09       6.01
O      13.68       3.58       5.17
