14

C       0.62       8.63      14.52
C       1.64      10.53      11.33
C       1.72       8.26      15.20
O       0.53       7.22      16.96
H      -0.37       9.60      12.83
O       0.50      10.87      10.86
H       2.71       9.59      12.96
O       2.81       7.30      17.03
H      -0.35       8.37      14.96
H       2.73       8.47      14.83
O       2.77      10.78      10.79
C       0.60       9.37      13.27
C       1.68       7.54      16.49
C       1.70       9.78      12.60
