47

H       3.75       6.28       0.05
H       9.51       8.03       1.16
H       3.49       4.77       1.87
H       2.05       6.69       2.35
H       2.92       6.81       3.91
H       1.94       5.36       3.55
H       8.30       8.92       2.44
H       7.99       7.80       3.69
H      11.81      10.18      -2.14
H      10.81      10.26      -3.57
H      11.55       9.15       0.91
H      12.26       7.07      -0.23
H      13.53       8.33      -0.13
H      12.61       8.10      -1.64
H       6.54      10.00      -3.55
H       4.52      10.03      -4.58
H       3.82       9.66      -2.98
H       4.24       8.34      -4.11
H       4.34       7.68      -1.79
C       6.92       7.49       1.98
C       4.77       6.29       1.94
C       8.71       9.04      -2.48
C      10.25       8.94      -0.60
C       9.24       8.41       0.18
C       5.99       6.57       4.11
C       8.62       8.93      -3.95
C       4.64       6.60       0.60
C       5.90       6.77       2.65
C       7.89       8.29      -0.26
C       9.99       9.32      -1.95
C       2.61       6.12       3.12
C      12.54       8.09      -0.54
C       4.55       9.33      -3.74
C       7.63       8.63      -1.62
C       6.83       7.72       0.57
C       5.62       7.36      -0.09
C       5.35       7.83      -1.40
C       6.26       8.59      -2.10
N       3.80       5.44       2.57
N       8.00       7.99       2.70
N      11.04       9.81      -2.69
N      11.57       9.11      -0.10
N       5.90       9.30      -3.22
O       4.96       6.82       4.82
O       9.21       9.82      -4.67
O       7.13       6.19       4.60
O       8.02       7.90      -4.43
