16

C       5.99       9.10       5.12
C       3.68       8.89       3.64
C       6.02       8.43       3.91
C       3.65       9.55       4.85
F       7.16       9.16       5.81
F       2.51       8.83       2.95
H       6.95       8.00       3.54
H       2.72       9.99       5.22
C       4.74      10.45       6.91
O       5.84      10.68       7.52
O       3.58      10.83       7.28
C       4.93       7.54       1.85
C       4.85       8.31       3.13
O       6.09       7.16       1.48
C       4.82       9.68       5.63
O       3.84       7.31       1.24
