30

H      12.93       8.95      15.02
H      12.25       7.41      13.08
H      12.89       8.17      11.00
H      14.60       9.35       9.62
H      17.32       9.26      12.94
H      15.93       9.14      15.28
H      17.77       7.33      14.73
H      16.88       5.12      15.75
H      14.49       5.67      16.77
H      14.26       5.42      15.04
H      14.43       8.02      16.61
N      13.16       7.46      13.53
O      11.08       7.92      16.21
O      11.81       5.92      15.42
O      18.31       9.59      10.44
O      16.69      10.95       9.57
C      11.91       7.18      15.58
C      13.10       7.87      14.93
C      14.13       8.10      12.77
C      13.86       8.42      11.42
C      14.82       9.07      10.65
C      16.08       9.35      11.20
C      16.34       9.02      12.53
C      15.37       8.44      13.34
C      15.64       8.17      14.82
C      16.74       7.14      15.03
C      16.27       6.00      15.55
C      14.79       6.05      15.78
C      14.45       7.55      15.61
C      17.10      10.01      10.35
