14

O       8.79      13.00       8.38
C       9.17      14.80       6.90
F       8.84      17.54       6.33
C       8.98      15.73       7.86
C       9.13      18.08       8.60
C       8.96      17.15       7.63
C       9.30      13.37       7.26
C       9.25      19.54       8.40
H       8.90      15.41       8.90
H       9.31      17.71       9.61
H       9.32      15.06       5.85
O       8.43      20.11       7.62
O       9.93      12.63       6.43
O      10.19      20.08       9.07
