28

C     -10.81       7.11      10.82
C     -15.36       6.18      12.41
N      -9.76       7.16      10.32
N     -15.64       5.12      12.82
O     -10.75       8.25      13.43
O     -11.67      10.30      13.08
H     -12.77       6.44       9.40
H     -13.45       5.44      10.69
H     -12.05       6.36      12.29
H     -13.81       8.71       8.86
H     -12.00       9.43      10.14
H     -15.91       8.09      11.83
O     -15.32       5.61       9.04
H     -13.71       7.60      13.65
H     -14.29       9.17      13.09
H     -14.97       9.41       9.98
H     -13.14      10.35      11.13
O     -16.58       7.48       9.34
C     -13.19       6.47      10.42
C     -12.14       7.03      11.43
C     -14.08       8.77       9.92
C     -14.99       7.49      11.87
C     -14.44       7.35      10.41
C     -12.61       8.42      11.95
C     -12.91       9.34      10.75
C     -13.92       8.20      12.75
C     -15.54       6.76       9.52
C     -11.59       9.04      12.89
