36

N       0.28       1.43      19.79
N       0.68      -1.43      28.84
N      -7.57      -2.45      24.21
N      -0.84      -0.74      24.13
N      -2.69      -1.84      25.13
N      -2.91      -0.88      22.97
C       0.94       1.22      20.94
C       0.35       0.57      22.01
C      -0.98       0.13      21.90
C      -1.66       0.35      20.70
C      -0.99       1.00      19.66
C      -0.66      -1.51      28.82
C      -1.38      -1.56      27.63
C      -0.68      -1.49      26.42
H       1.96       1.59      20.98
H       0.91       0.39      22.93
C       0.72      -1.42      26.45
C       1.36      -1.42      27.68
C      -6.75      -2.75      25.24
C      -4.84      -1.89      24.05
C      -5.69      -1.60      22.98
H      -2.69       0.02      20.56
C      -5.39      -2.48      25.20
H      -1.49       1.19      18.71
C      -1.62      -0.54      23.05
C      -1.44      -1.38      25.15
C      -3.40      -1.53      24.04
H      -4.75      -2.71      26.05
H      -5.30      -1.16      22.06
C      -7.04      -1.89      23.10
H      -7.75      -1.66      22.29
H      -7.23      -3.19      26.11
H      -2.46      -1.62      27.65
H       1.30      -1.37      25.53
H      -1.18      -1.52      29.77
H       2.45      -1.39      27.75
