24

O      -8.57      16.30       7.03
O      -9.34      14.23       7.59
C      -8.65      15.04       6.90
C      -5.44      12.68       2.58
C      -7.83      14.44       5.79
C      -6.26      13.29       3.69
C      -6.70      15.09       5.27
O      -4.26      13.13       2.45
C      -5.98      14.56       4.21
C      -8.15      13.19       5.23
O      -5.72      16.30       6.98
O      -6.34      17.37       5.15
C      -7.35      12.61       4.25
O      -6.90      10.34       4.18
O      -6.01      11.78       1.89
O      -5.11      15.85       2.50
O     -10.45      12.95       5.30
O      -9.20      11.41       6.28
O      -8.74      11.08       3.21
O      -3.91      15.58       4.34
N      -6.22      16.37       5.86
N      -7.69      11.22       3.83
N      -4.89      15.39       3.62
N      -9.38      12.46       5.65
