29

C       4.35       5.29       4.45
C       6.39       6.37       4.24
C       4.03       5.57       3.12
H       2.96       7.95       2.40
C       4.92       6.30       2.34
H       2.71      10.24       3.08
C       6.14       6.68       2.92
H       4.27      12.03       2.43
C       4.59       6.76       0.95
H       3.31      11.48       1.03
H       5.00      10.99       1.17
N       4.41       8.24       0.88
H       5.67       9.42       3.26
N       5.51       5.70       5.01
H       4.35       8.76       4.26
O       2.10       8.81      -0.43
H       4.75      10.49       4.35
O       1.04       9.46       1.45
H       3.67       4.75       5.10
H       7.33       6.65       4.73
H       3.07       5.23       2.72
H       6.90       7.22       2.34
H       3.66       6.29       0.59
H       5.40       6.51       0.25
C       2.05       9.03       0.83
C       3.29       8.75       1.70
C       3.65       9.97       2.58
C       4.08      11.18       1.75
C       4.66       9.63       3.67
