33

H       4.35      10.31       0.15
H       4.15       9.30       1.61
H       5.38      10.59       1.58
H      10.09       8.85       0.03
H       9.37       9.58       1.49
H       9.84       7.86       1.49
H       5.99       4.63       0.11
H       7.01       4.95       1.54
H       5.28       5.37       1.58
C       6.87       8.08      -5.49
C       6.77       7.95      -1.43
C       6.49       6.69       0.41
C       6.77       7.87       5.40
C       5.88       8.85       0.44
C       7.11       9.18      -0.49
C       6.82       8.03      -4.05
C       6.80       7.89       3.96
C       5.57       7.60      -0.47
C       6.83       7.94       1.33
C       4.89       9.82       0.97
C       9.42       8.67       0.88
C       6.18       5.33       0.94
C       7.70       7.06      -0.51
C       8.06       8.30       0.39
C       6.78       7.98      -2.84
C       6.83       7.92       2.74
I       7.56      11.12      -1.21
I       9.11       5.67      -1.27
I       3.63       7.07      -1.14
O       5.76       7.89      -6.09
O       8.00       8.30      -6.01
O       5.61       7.88       5.93
O       7.89       7.85       5.99
