62

H      10.64       6.90       4.69
H       6.72      11.28      -2.20
H       4.94      11.52      -2.32
H       5.92      11.44      -3.82
H       9.57       4.55       2.32
H       7.80       4.79       2.20
H       8.60       4.62       3.82
H      10.47       6.22      -1.38
H       4.05       9.85       1.38
H       8.46       4.39      -5.46
H       9.46       4.90      -6.88
H       7.75       5.42      -6.76
H       5.06      11.17       6.88
H       6.05      11.68       5.46
H       6.76      10.65       6.76
H       4.23       8.47      -6.32
H       3.81      10.21      -6.15
H       3.88       9.17      -4.69
H      10.71       5.86       6.15
H      10.29       7.60       6.33
C       7.34       7.99      -7.08
C       7.18       8.08       7.08
C       6.49       8.84      -4.88
C       8.03       7.23       4.88
C       6.49       8.88      -3.47
C       8.03       7.19       3.47
C       7.35       8.03      -2.76
C       7.17       8.04       2.76
C       8.20       7.14      -3.45
C       6.32       8.93       3.45
C       8.21       7.13      -4.85
C       6.30       8.94       4.85
C       7.35       7.97      -5.57
C       7.17       8.10       5.57
C       7.22       8.03       1.28
C       7.30       8.04      -1.28
C       4.31       9.36      -5.68
C      10.20       6.71       5.68
C       5.82      11.07      -2.80
C       8.70       5.00       2.80
C       9.14       6.22      -2.73
C       5.38       9.85       2.72
C       8.66       5.20      -6.19
C       5.85      10.87       6.18
N       7.21       6.84      -0.67
N       7.31       9.22       0.67
N       7.17       6.83       0.65
N       7.35       9.24      -0.65
O       8.82       6.34       5.57
O       5.56       9.64      -2.80
O       8.95       6.43       2.80
O       9.24       5.02      -2.91
O       9.92       6.90      -1.83
O       5.28      11.05       2.91
O       4.60       9.17       1.83
O       9.15       6.36      -5.48
O       5.37       9.71       5.48
O       6.21       7.83      -7.64
O       8.31       8.24       7.64
O       8.46       8.15      -7.65
O       6.06       7.92       7.65
O       5.70       9.73      -5.57
