30

C      -5.97      -5.51      15.65
C      -8.78      -5.55      15.66
C     -13.01      -5.54      15.61
C     -10.20      -5.56      15.65
O     -15.10      -4.87      16.52
O      -3.89      -6.15      14.71
O     -15.10      -6.19      14.67
O      -3.89      -4.84      16.58
H      -6.11      -4.28      17.41
H      -6.08      -6.76      13.89
H      -8.29      -3.58      18.46
H     -10.69      -7.54      12.85
H     -12.87      -6.78      13.86
H     -12.90      -4.30      17.38
F     -10.87      -3.48      18.60
F      -8.11      -7.64      12.71
C     -14.51      -5.53      15.60
C      -4.48      -5.49      15.64
C      -6.67      -4.83      16.64
C      -8.07      -4.83      16.67
C      -8.81      -4.13      17.67
C      -6.65      -6.23      14.66
C      -8.05      -6.26      14.65
C      -8.81      -6.96      13.66
C     -12.31      -6.25      14.63
C     -10.91      -6.27      14.63
C     -10.17      -6.99      13.63
C     -12.33      -4.84      16.62
C     -10.93      -4.85      16.65
C     -10.17      -4.15      17.64
