36

H       1.92      14.66      14.57
H       5.45      10.25      10.58
H       4.81      14.95      14.16
H       1.14      10.25      10.65
H       0.92      11.69      14.75
H       5.77      14.52      11.26
C       3.70       9.14      16.74
C       2.97      15.69       8.13
C       4.06      13.05      13.37
C       2.60      11.72      11.47
C       2.63      13.47      12.87
C       4.07      11.32      11.96
C       2.91      14.86       9.31
C       3.76       9.96      15.55
C       4.51      12.81      11.85
C       2.17      11.93      12.95
C       3.05      13.24      11.37
C       3.63      11.53      13.46
C       2.87      14.11      10.27
C       3.81      10.67      14.57
C       1.79      14.54      13.47
C       4.73      10.09      11.41
C       4.90      13.84      14.30
C       1.94      10.96      10.36
C       0.96      11.47      13.66
C       5.71      13.41      11.23
O       4.81       8.83      17.26
O       1.85      15.99       7.61
O       2.53       8.83      17.15
O       4.13      16.01       7.73
O       0.99      15.22      12.84
O       4.41       8.98      11.81
O       5.66      13.37      15.14
O       2.34      11.08       9.21
O       0.05      10.86      13.12
O       6.59      12.75      10.69
