38

C      13.08      12.34      19.04
C      13.75      11.02      18.78
H      12.03       9.94      19.31
C      13.49       8.60      18.67
C      13.20       7.55      19.55
H      14.72       4.06      18.70
C      14.24       8.33      17.51
C      14.70       7.05      17.23
C      13.65       6.26      19.28
C      14.41       6.00      18.12
C      15.26       4.11      16.74
C      15.60       2.65      16.90
C      14.64       1.72      17.32
C      16.89       2.20      16.61
C      15.00       0.38      17.43
C      17.18       0.85      16.77
N      12.05      14.93      19.15
N      13.00       9.89      18.95
N      14.85       4.69      17.91
N      16.26      -0.04      17.17
H      10.15      14.06      19.12
H      14.00      15.62      19.24
H      17.67       2.91      16.32
H      10.98      11.74      19.02
H      15.01      13.31      19.16
O      14.94      11.00      18.41
H      12.61       7.74      20.44
H      14.47       9.15      16.82
H      15.27       6.84      16.33
H      14.29      -0.38      17.76
H      13.39       5.44      19.95
C      11.22      13.86      19.12
O      15.37       4.67      15.65
H      13.62       2.03      17.55
C      13.38      14.72      19.20
C      11.70      12.55      19.07
H      18.19       0.47      16.60
C      13.93      13.45      19.15
