44

H       4.53      -4.18      19.60
H       4.30      -6.15      18.30
H       1.55      -6.66      17.01
H       1.26      -8.53      15.69
H       2.05     -10.60      14.63
H       5.95      -9.98      16.39
H       5.15      -7.92      17.45
H       5.65     -11.87      15.10
H       2.92     -12.39      13.78
H       2.71     -14.46      12.60
H       7.47     -15.59      13.38
H       6.58     -13.46      14.22
H       0.66      -5.01      17.88
H      -0.21      -2.94      18.88
C       1.64      -2.35      19.78
C       3.01      -2.72      19.98
C       3.49      -3.92      19.41
C       2.69      -4.76      18.64
C       3.25      -5.97      18.06
C       2.60      -6.85      17.26
C       3.14      -8.06      16.66
C       2.29      -8.85      15.85
C       2.74     -10.02      15.25
C       4.07     -10.46      15.42
C       4.91      -9.66      16.23
C       4.47      -8.50      16.83
C       4.61     -11.67      14.84
C       3.97     -12.57      14.04
C       4.55     -13.79      13.51
C       3.76     -14.70      12.80
C       4.24     -15.93      12.32
C       5.61     -16.27      12.55
C       6.42     -15.33      13.23
C       5.91     -14.14      13.69
C       3.31     -16.80      11.58
C       1.33      -4.38      18.46
C       0.83      -3.22      19.02
C       3.94      -1.92      20.79
O       2.13     -16.43      11.30
O       3.72     -17.99      11.24
O       6.17     -17.43      12.16
O       5.13      -2.32      21.03
O       3.54      -0.77      21.24
O       1.08      -1.23      20.27
