18

C      12.22       1.51       2.25
C      15.10       3.30       4.92
C      13.22       2.14       3.18
C      15.26       3.37       3.53
C      13.04       2.05       4.57
C      14.33       2.81       2.66
C      13.98       2.63       5.42
O      15.90       3.66       7.12
O      11.24       0.90       2.79
O      12.45       1.64       1.00
C      16.06       3.95       5.88
O      16.93       4.73       5.39
O      17.49       3.35       2.91
O      16.25       5.07       2.31
H      12.17       1.53       4.96
H      14.46       2.88       1.58
H      13.85       2.59       6.50
N      16.44       3.99       2.89
