22

C       0.97       4.34      24.16
C      -1.33       4.00      24.17
C      -1.63       5.35      24.18
C      -0.54       6.26      24.18
C      -0.70       7.67      24.18
C       1.60       8.02      24.17
C       1.90       6.67      24.17
C       0.81       5.75      24.17
C       3.35       6.26      24.17
C      -3.08       5.76      24.20
N      -0.06       3.51      24.17
N       0.33       8.50      24.17
H       1.96       3.88      24.16
H      -2.12       3.24      24.17
H      -1.69       8.13      24.19
H       2.38       8.78      24.16
H       3.85       6.66      23.27
H       3.50       5.18      24.18
H       3.86       6.69      25.04
H      -3.59       5.36      23.31
H      -3.23       6.84      24.21
H      -3.58       5.33      25.08
