40

H       6.18       1.25      10.14
H       8.74       1.20      10.43
H       6.30      -1.09      10.11
H       8.70      -1.13      10.44
H       9.45      -1.14      12.02
H       5.17      -1.13      11.47
H       9.43       1.22      12.05
H       5.16       1.20      11.58
H       6.17       1.28      13.86
H       7.92       1.20      14.07
H       5.80      -2.21      14.12
H       4.17      -1.21      15.31
H       4.46       0.37      14.58
H       5.53      -0.20      15.88
H       9.02      -1.10      13.93
H       9.03      -1.39      16.20
H       7.27      -1.50      16.25
H       8.05       0.08      15.99
C       7.23      -5.36      11.87
C       7.29       5.47      11.94
C       6.12      -0.71      11.12
C       8.60      -0.73      11.46
C       8.61       0.82      11.45
C       6.10       0.83      11.15
C       7.28       4.02      11.99
C       7.26      -1.26      12.03
C       7.27       1.36      12.01
C       7.08       0.83      13.45
C       7.04      -0.73      13.51
C       7.28       2.81      12.01
C       7.25      -2.71      12.01
C       7.22      -3.92      11.93
C       4.97      -0.52      14.98
C       8.11      -1.00      15.75
N       5.73      -1.20      13.95
N       8.11      -1.32      14.33
O       6.12      -5.93      11.60
O       8.34      -5.94      12.09
O       6.17       6.05      12.12
O       8.42       6.03      11.72
