14

H      -1.66       2.55       8.08
H       0.72       0.97       6.91
H      -2.85       0.46       7.16
H      -0.26      -0.83       8.21
C      -1.92      -2.06       7.54
O       0.65       3.99       8.27
C      -1.11       1.69       7.71
C       0.20       1.80       7.39
C      -1.81       0.43       7.50
C      -1.24      -0.77       7.75
O      -2.88      -2.11       6.67
C       1.04       3.01       7.52
O      -1.50      -3.05       8.22
O       2.14       2.97       6.88
