25

C       9.23      19.33       1.32
C       9.60      18.54       0.23
H       7.13      22.43       4.97
C      10.39      19.07      -0.79
H       7.36      20.91       2.98
C      10.76      20.42      -0.74
C      10.41      21.21       0.35
H      11.42      22.32       2.60
H       8.65      18.90       2.14
C      10.87      18.21      -1.93
N      10.33      23.11       4.14
H       9.30      17.49       0.18
H      11.35      20.83      -1.55
O      10.07      24.94       6.07
H      10.71      22.25       0.39
O       7.92      24.34       6.44
O      10.57      16.97      -1.91
C       9.04      24.22       5.86
C       9.15      23.16       4.79
O      11.56      18.79      -2.83
C       8.07      22.36       4.42
C       8.20      21.51       3.32
C       9.41      21.49       2.61
C      10.45      22.30       3.09
C       9.66      20.66       1.41
