16

O       5.98       7.69      21.59
O       3.86       7.68      22.38
O       3.73      14.72      21.78
O       5.90      14.74      22.43
C       4.91       8.26      21.98
C       4.89       9.76      21.98
C       3.66      11.88      22.01
C       6.07      10.53      22.02
C       3.69      10.49      21.97
C       4.84      12.65      22.05
C       4.82      14.15      22.09
C       6.05      11.92      22.05
F       2.45      12.46      22.02
F       7.28       9.94      22.05
F       2.49       9.87      21.90
F       7.25      12.54      22.06
