48

C       8.41      29.88      34.13
C       7.55      29.87      33.26
H      10.73      28.13      34.70
H       8.94      31.67      36.44
C       0.10      25.58      29.87
C       0.95      26.46      29.88
H       6.01      34.57      23.38
H       2.49      36.36      25.16
C       4.25      34.03      25.71
C       4.25      33.17      26.57
H      -0.44      23.28      28.07
H      -2.20      24.97      31.65
H       7.23      31.59      31.20
H       5.52      28.12      32.92
H       2.99      26.81      31.63
H       1.26      28.53      28.16
H       2.53      31.09      26.88
H       5.96      32.85      28.65
N      10.62      30.47      36.93
N      11.18      29.34      36.38
N       3.69      36.82      23.47
N       4.81      36.25      22.91
N      -2.66      23.31      30.42
N      -2.10      22.77      29.28
N       6.61      29.86      32.30
N       1.89      27.42      29.89
N       4.25      32.22      27.52
C      10.46      28.99      35.30
C       9.40      29.89      35.13
C       9.55      30.81      36.19
C       5.15      35.18      23.64
C       4.25      35.02      24.71
C       3.35      36.09      24.55
C      -1.04      23.52      28.94
C      -0.88      24.57      29.86
C      -1.94      24.39      30.78
C       5.42      30.44      30.50
C       4.83      31.02      29.32
C       3.66      30.42      28.72
C       3.07      29.23      29.30
C       3.67      28.65      30.49
C       4.83      29.25      31.09
C       6.51      30.79      31.27
C       5.59      28.92      32.20
C       2.91      27.54      30.83
C       1.98      28.46      28.96
C       3.32      31.18      27.61
C       5.17      32.12      28.56
