32

H      -1.69      -1.20      16.14
H      -1.05       1.77      22.38
H      -3.84      -0.56      10.41
H      -1.36       5.53      20.27
H      -4.91       2.43      16.95
H      -3.73      -4.35      12.51
H      -1.07       1.58      16.14
H      -5.53      -0.35      16.95
C      -4.20       1.62      16.77
C      -2.06       1.14      16.32
C      -4.54       0.09      16.77
C      -2.05       2.68      19.75
C      -4.07      -1.48      13.22
C      -3.26      -0.19      17.60
C      -3.34       1.42      15.49
C      -2.90       1.36      17.65
C      -3.70      -0.13      15.44
C      -2.47       2.08      18.78
C      -4.00      -0.86      14.27
C      -1.04       2.80      22.07
C      -3.76      -1.60      10.71
C      -1.20       4.73      20.98
C      -3.70      -3.54      11.79
C      -1.49       3.36      20.85
C      -3.93      -2.16      11.99
C      -2.40      -0.39      16.32
N      -0.62       4.96      22.17
N      -3.39      -3.76      10.50
N      -0.52       3.76      22.85
N      -3.43      -2.56       9.84
F      -3.39       2.24      14.39
F      -3.21      -1.01      18.69
