10

N      12.33       6.96       7.85
O      12.35       9.69       7.84
H      14.86       4.84       7.86
C      13.46       7.69       7.84
C      14.16       5.66       7.86
H      12.06       4.84       7.86
N      13.46       9.12       7.84
C      12.76       5.66       7.86
O      14.56       9.69       7.84
N      14.59       6.96       7.85
