20

H       8.61       3.78      11.58
C       8.99       3.87      10.56
H       8.61      -1.45       7.04
C       8.99      -0.46       6.81
C       9.94       4.24       8.03
H      10.33       4.46       7.04
C       9.94       2.00       6.08
H      10.33       2.95       5.73
H       8.63       1.83      10.04
C       9.00       2.79       9.69
H       8.63       0.35       8.75
C       9.00       0.56       7.75
H      10.25       6.28       8.74
C       9.90       5.27       8.97
C       9.90       0.93       5.20
H      10.26       1.01       4.17
N       9.43       5.09      10.21
N       9.43      -0.28       5.55
C       9.48       2.96       8.37
C       9.48       1.84       7.40
