30

H       1.17      17.06       3.25
H       4.17      24.10       9.10
H      -0.03      24.48       8.28
H       1.45      20.40       6.13
H       5.21      19.94       3.50
H       4.30      22.14       7.58
H       5.22      17.89       2.10
H       1.14      19.07       4.68
H       0.10      22.53       6.71
C       2.02      25.62       9.63
C       3.23      16.14       1.72
C       3.21      17.34       2.60
C       2.06      17.69       3.33
C       2.05      18.82       4.13
C       3.19      19.66       4.22
C       4.32      19.31       3.46
C       4.34      18.16       2.68
C       3.36      22.67       7.71
C       3.28      23.75       8.57
C       0.91      23.95       8.11
C       0.99      22.87       7.24
C       2.22      22.23       7.00
C       3.19      20.85       5.10
C       2.28      21.11       6.06
C       2.06      24.42       8.77
Br       4.60      22.12       4.76
O       3.13      26.20       9.86
O       4.36      15.80       1.26
O       0.88      26.02      10.05
O       2.13      15.55       1.48
