13

H       3.52       1.78      13.88
H       2.45       2.77      12.83
O       2.97       4.24      14.89
O       4.94       4.47      13.79
H       3.30       2.16      10.43
H       3.62       0.74      11.48
C       3.84       3.91      14.02
C       3.47       2.67      13.22
O       6.34       2.05      10.52
O       5.15       0.45       9.42
O       4.41       2.55      12.15
C       5.30       1.38      10.28
C       4.04       1.68      11.09
