30

H       8.08      19.00      10.03
H       2.79      20.31       4.47
H       3.25      16.18       5.59
N       4.13      21.33       6.51
H       4.75      21.46      11.22
H       3.45      20.61       9.26
N       7.01      18.14       7.75
H       4.36      16.91       7.72
O       8.20      19.97      12.33
O       1.47      18.66       3.13
O       2.52      16.64       3.20
O       6.98      21.88      12.39
H       6.44      17.69       7.05
H       7.82      17.62       8.06
H       4.43      21.62       7.44
H       3.57      21.99       6.00
C       7.29      20.74      11.89
C       2.27      17.81       3.65
C       6.50      20.28      10.72
C       2.97      18.21       4.91
C       7.06      19.36       9.83
C       6.37      18.94       8.69
C       3.15      19.57       5.18
C       3.84      19.99       6.33
C       3.42      17.24       5.81
C       4.05      17.65       6.98
C       5.19      20.76      10.51
C       4.48      20.29       9.41
C       5.05      19.41       8.47
C       4.29      19.01       7.26
