10

C      -4.63       3.01       5.52
C      -3.91       2.53       4.65
C      -3.11       2.02       3.70
C      -2.38       1.54       2.83
O      -6.50       4.22       6.13
O      -5.14       3.34       7.75
O      -0.57       1.73       1.42
O      -1.81      -0.19       1.42
C      -5.49       3.56       6.54
C      -1.53       0.99       1.82
