23

N      10.60       2.13      12.43
O      10.15       7.50       4.86
O      11.24       8.93       6.26
H      10.37       0.66      10.99
H      10.30       2.23       9.09
H      10.65       5.46      11.97
H      10.78       3.72      13.75
H       9.44       3.71       7.84
H       9.54       5.33       5.98
H      11.68       8.10       8.47
H      11.61       6.48      10.35
C      10.44       1.74      11.15
C      10.40       2.63      10.09
C      10.50       4.01      10.35
C      10.61       4.41      11.69
C      10.66       3.45      12.70
C      10.51       4.99       9.24
C       9.94       4.67       7.99
C       9.98       5.58       6.94
C      10.60       6.83       7.11
C      11.18       7.14       8.35
C      11.13       6.24       9.40
C      10.65       7.81       5.98
