20

C     -12.31       2.68      14.47
C     -14.74       2.80      15.68
C     -12.60       3.34      15.88
O     -11.67       5.17      17.03
O     -16.40       2.34      13.02
O     -10.64       3.14      17.14
H     -11.32       2.64      14.02
H     -15.73       2.84      16.14
H     -13.64       3.91      12.93
H     -13.41       1.56      17.23
H     -14.12       5.09      15.48
H     -12.92       0.39      14.68
O     -15.37       0.31      13.12
C     -14.44       2.14      14.28
C     -13.87       4.04      15.29
C     -13.18       1.43      14.87
C     -15.48       1.55      13.41
C     -11.56       3.93      16.75
C     -13.57       3.40      13.90
C     -13.47       2.08      16.26
