22

O      -2.80       9.55       3.26
O       2.73      10.41      10.70
H       1.92       9.01       8.73
H       0.07      12.87       9.13
H      -1.31      12.46       7.09
H      -2.00      10.95       5.23
H      -0.16       7.09       4.83
H       1.26       7.52       6.84
C       1.87      11.26      10.26
C      -1.97       8.69       3.71
C       1.21       9.75       8.36
C       0.15      11.93       8.57
C      -0.61      11.70       7.45
C      -0.50      10.48       6.74
C      -1.28      10.21       5.59
C      -0.23       8.02       5.38
C       0.54       8.26       6.49
C       0.43       9.49       7.21
C       1.07      10.95       9.04
C      -1.16       9.00       4.93
O       1.65      12.41      10.77
O      -1.74       7.54       3.20
