20

H       1.11       8.03      14.63
H      -0.95       7.03      12.92
H      -2.32       9.51      13.22
H      -0.95      10.46      10.90
H       1.11      11.46      12.61
H       2.48       8.98      12.31
C       0.40       7.79      10.35
C      -0.50       8.02      12.87
C       0.66       8.56      13.78
C      -0.12       9.92      13.92
C      -1.26       9.38      13.00
C      -0.50       9.93      11.75
C       0.66      10.46      12.66
C       1.42       9.10      12.53
C       0.28       8.57      11.60
C      -0.24      10.71      15.17
O      -0.70       7.57       9.73
O       1.55       7.38       9.99
O       0.84      10.91      15.81
O      -1.39      11.16      15.49
