38

H       0.82      16.74       8.56
H       3.00      15.08       5.24
H       3.00      13.59      11.31
H       0.82      11.93       7.99
H       2.01      13.60       6.93
H       2.01      15.07       9.62
H       3.49      18.22       3.62
H       3.89      16.56       3.68
H       0.46      19.96       7.09
H       0.03      18.91       8.37
H       0.46       8.71       9.47
H       0.03       9.76       8.19
H       3.49      10.45      12.93
H       3.89      12.11      12.87
C       1.98       9.04      11.46
C       1.98      19.63       5.09
C       1.97      18.32       5.74
C       1.32      18.13       7.00
C       1.35      16.87       7.62
C       1.93      15.77       6.99
C       2.52      15.93       5.73
C       2.60      17.19       5.12
C       1.94      14.45       7.61
C       1.94      14.22       8.94
C       2.52      12.74      10.83
C       1.93      12.90       9.57
C       1.35      11.80       8.93
C       1.32      10.54       9.55
C       1.97      10.35      10.82
C       2.60      11.48      11.44
N       3.22      17.28       3.89
N       0.72      19.17       7.67
N       0.72       9.50       8.88
N       3.22      11.39      12.67
O       2.90       8.77      12.34
O       1.08       8.17      11.16
O       2.90      19.90       4.22
O       1.08      20.50       5.39
