13

O       8.55       4.16       6.62
O       8.97       2.16       5.70
O       8.89       6.11       9.02
O       8.10       5.12      10.85
C       9.24       3.09       6.51
C      10.49       2.97       7.40
C       9.70       3.90       9.55
C       8.84       5.13       9.83
H      10.49       1.99       7.88
H      11.36       3.03       6.73
H      10.29       3.67      10.46
N      10.58       4.07       8.38
H       9.02       3.05       9.41
