61

H      24.49      21.26      17.92
H      21.54      24.43      17.98
H      24.43      30.68       8.18
H      21.30      27.68       8.20
C      23.90      23.78      16.32
H      27.66      21.48       8.15
H      30.89      24.37       8.20
C      24.93      23.32      15.56
C      25.59      24.03      14.48
C      25.28      25.27      14.03
C      28.36      23.84       9.81
C      28.86      24.85      10.57
C      28.16      25.53      11.64
C      26.93      25.23      12.11
C      28.28      28.38      16.32
C      27.30      28.87      15.53
C      26.64      28.14      14.45
C      26.96      26.91      14.01
C      23.80      28.29       9.83
C      23.34      27.26      10.58
C      24.06      26.60      11.66
C      25.30      26.90      12.10
H      27.79      30.96      17.87
N      21.88      22.70      19.15
N      22.82      21.69      19.12
H      30.60      27.67      18.02
N      21.71      29.37       7.01
N      22.71      30.33       7.00
N      30.43      22.69       7.01
N      29.40      21.77       6.99
N      30.33      29.44      19.15
N      29.43      30.48      19.10
H      25.32      22.32      15.78
H      26.44      23.52      14.02
H      23.49      24.77      16.09
H      24.46      25.83      14.48
H      29.86      25.22      10.34
H      28.68      26.39      12.09
H      27.36      23.46      10.03
H      26.36      24.39      11.69
H      26.94      29.88      15.71
H      25.78      28.64      13.99
H      28.64      27.36      16.14
H      27.80      26.36      14.44
H      22.35      26.86      10.35
H      23.54      25.75      12.12
H      24.79      28.72      10.06
H      25.86      27.72      11.64
C      23.66      21.93      18.10
C      23.29      23.11      17.44
C      22.16      23.55      18.15
C      23.56      30.05       8.01
C      23.13      28.91       8.71
C      21.96      28.52       8.03
C      28.55      22.08       7.98
C      29.01      23.21       8.69
C      30.21      23.55       8.02
C      28.59      30.26      18.07
C      28.91      29.05      17.43
C      30.02      28.58      18.17
C      26.12      26.08      13.06
