12

C       2.45       1.47      11.13
C       2.45       9.33       6.24
C       2.45       5.93       8.36
O       3.59       0.96      11.36
O       1.31       9.85       6.01
O       1.30       1.04      11.49
C       2.45       4.88       9.01
O       3.59       9.76       5.88
C       2.45       2.70      10.37
C       2.45       8.11       7.00
C       2.45       3.74       9.72
C       2.45       7.06       7.65
