16

C       4.13      11.25      23.51
C       3.34      12.52      23.54
C       3.06      13.20      22.35
C       2.41      14.43      22.39
O       4.45      10.76      24.64
O       4.43      10.77      22.37
C       2.95      13.07      24.77
C       2.30      14.30      24.81
C       2.05      15.00      23.62
C       1.41      16.35      23.65
O       1.15      16.88      22.53
O       1.18      16.86      24.80
H       3.37      12.76      21.40
H       2.19      14.98      21.47
H       1.99      14.75      25.75
H       3.17      12.52      25.69
