18

C      18.78      12.10       4.00
C      18.02      10.91       4.00
C      16.64      12.34       5.22
O      14.84      12.06       6.72
O      15.62      14.16       6.28
O      21.16       8.94       1.65
O      16.30       8.84       4.62
O      14.61      10.25       4.66
O      22.24      10.95       1.78
S      17.99      13.36       4.86
S      18.80       9.64       3.17
C      15.61      12.89       6.13
C      21.26      10.16       2.02
N      15.81       9.98       4.67
C      16.79      11.07       4.67
C      20.00      11.98       3.30
H      20.75      12.75       3.16
C      20.14      10.69       2.79
