33

C      -2.41       3.36      19.07
C      -0.57       2.70      17.56
H      -6.98       2.75      18.20
C      -1.13       3.31      16.30
H      -4.71       3.63      17.64
C      -1.85       2.51      15.41
H      -3.18       2.06      21.33
C      -2.40       3.05      14.24
H      -5.43       1.12      21.87
C      -2.21       4.41      13.95
H      -2.50       4.18      18.33
C      -1.51       5.22      14.84
H      -1.87       3.75      19.94
C      -0.97       4.67      16.01
C      -2.71       4.97      12.65
H       0.08       3.41      18.09
N      -1.61       2.24      18.51
H       0.05       1.82      17.31
O      -7.67       0.30      21.21
H      -1.98       1.44      15.62
O      -8.67       1.69      19.71
H      -2.95       2.42      13.54
O      -3.36       4.19      11.88
H      -1.38       6.27      14.61
O      -2.39       6.18      12.41
H      -0.41       5.31      16.70
C      -7.67       1.25      20.36
C      -6.34       1.88      20.07
C      -6.14       2.60      18.88
C      -4.87       3.09      18.57
C      -3.79       2.90      19.45
C      -4.01       2.21      20.65
C      -5.27       1.69      20.95
