17

C       3.14       2.36       7.56
H       6.22      -1.91       9.57
C       3.46       0.90       7.46
H       4.97       0.93       9.00
C       2.93      -1.23       6.36
H       1.99       0.66       5.91
N       4.31      -3.10       7.29
H       2.37      -1.82       5.64
N       5.26      -3.23       8.25
H       3.89      -3.92       6.82
O       3.89       3.08       8.34
C       5.47      -2.02       8.80
O       2.17       2.82       6.91
C       4.40       0.32       8.30
C       3.88      -1.82       7.21
C       2.73       0.13       6.51
C       4.62      -1.07       8.18
