28

H       6.39      22.01      19.97
H       6.50      20.17      18.25
H       6.10      17.95      15.02
H       6.26      16.02      13.42
H      10.63      21.71      20.57
H       9.78      16.71      16.86
H      10.73      19.82      18.90
C       8.13      14.22      13.17
C       8.12      15.30      14.20
C       9.11      15.49      15.19
C       9.03      16.56      16.08
C       7.95      17.46      16.00
C       6.94      17.26      15.05
C       7.04      16.20      14.17
C       7.39      20.52      18.77
C       7.34      21.53      19.72
C       8.63      19.90      18.48
C       8.51      21.96      20.36
C       9.74      21.36      20.06
C       9.79      20.33      19.13
C       8.47      23.05      21.38
I      10.71      14.15      15.52
N       7.78      18.56      16.87
N       8.80      18.84      17.57
O       6.98      13.81      12.78
O       9.25      13.84      12.71
O       9.59      23.54      21.73
O       7.33      23.39      21.84
