16

H       1.50       8.09       5.77
H      -1.04       8.07       5.75
H      -0.83       2.87       5.99
H       1.46       3.26       3.95
H      -1.03       3.42       3.11
H      -2.23       2.97       4.14
H       1.65       2.86       5.68
C       0.96       4.93       5.27
C       0.94       7.16       5.64
C      -0.46       7.15       5.64
C      -0.43       4.92       5.32
C      -0.51       3.40       5.08
C       1.08       3.46       4.97
N       1.68       6.03       5.46
N      -1.17       6.00       5.49
N      -1.22       2.87       3.95
