38

H      13.95      10.87       9.42
H      16.46      10.81       9.33
H      20.12       7.33       9.29
H      22.68      11.51      10.15
H      22.61       7.26       9.65
H      13.81       6.60       9.09
H      19.02      11.76       9.66
H      19.84      13.91      10.01
H      21.42      13.40       9.38
H      21.04      13.17      11.10
H      17.50       6.37       8.96
H      16.65       4.21       8.86
H      15.18       4.84       8.09
H      15.30       4.81       9.87
C      24.25       9.33      10.11
C      12.26       8.78       9.43
C      22.76       9.39       9.93
C      13.75       8.73       9.27
C      22.05       8.19       9.69
C      14.49       9.94       9.31
C      20.69       8.24       9.49
C      15.87       9.90       9.27
C      19.99       9.46       9.53
C      16.56       8.68       9.16
C      20.71      10.68       9.76
C      15.82       7.45       9.05
C      22.10      10.61       9.97
C      14.41       7.51       9.12
C      20.61      13.14      10.08
C      15.87       4.98       8.93
N      18.62       9.61       9.38
N      17.94       8.53       9.22
N      20.03      11.86       9.77
N      16.49       6.28       8.90
O      24.89      10.43      10.17
O      11.64       7.67       9.52
O      24.78       8.17      10.14
O      11.73       9.94       9.49
