37

C      -2.28      -3.15      21.56
C      -3.38      -3.57      22.33
C      -2.95      -3.40      23.66
Si      -7.29      -5.17      20.93
H      -7.07      -8.27      16.36
H      -7.12      -4.01      15.56
C      -9.49      -3.12      21.39
C      -8.61      -3.95      21.22
C      -7.15      -5.76      17.95
C      -7.19      -5.52      19.16
H      -9.64      -0.56      22.90
H     -12.29      -2.92      20.41
C      -7.92      -7.71      22.48
C      -7.67      -6.69      21.84
C      -4.62      -4.06      21.89
C      -5.70      -4.49      21.50
H     -10.32      -8.69      23.92
H      -6.30     -10.11      23.16
H      -2.18      -3.12      20.48
H      -3.48      -3.60      24.59
N      -7.07      -5.74      14.34
N      -7.06      -7.09      14.59
N     -12.48      -1.08      21.44
C      -7.08      -7.27      15.93
N     -11.64      -0.33      22.23
C      -7.11      -6.02      16.57
N      -7.96     -10.88      24.22
N      -9.24     -10.43      24.47
C      -7.10      -5.09      15.51
C     -10.46      -0.97      22.32
C     -10.51      -2.17      21.58
C     -11.82      -2.18      21.05
N      -1.69      -2.92      23.67
N      -1.28      -2.77      22.37
C      -9.39      -9.23      23.87
C      -8.19      -8.88      23.21
C      -7.33      -9.96      23.47
