26

H       0.91       2.90      14.11
H       4.92       4.77      15.67
H       1.28       2.99      18.49
H       0.91       3.20      16.08
H       4.17       5.42      11.39
H       4.49       5.31      13.83
C       2.25       4.50       9.89
C       3.36       3.58      19.96
C       2.34       4.31      11.37
C       3.27       3.77      18.48
C       1.42       3.61      12.17
C       1.62       3.49      13.54
C       4.28       4.30      17.64
C       4.09       4.38      16.26
C       2.07       3.37      17.85
C       1.88       3.48      16.49
C       3.45       4.89      12.01
C       3.63       4.81      13.38
C       2.72       4.09      14.18
C       2.90       3.98      15.65
Cl       0.02       2.81      11.53
Cl       5.78       4.92      18.24
O       1.11       4.39       9.33
O       2.28       3.25      20.55
O       4.49       3.72      20.53
O       3.34       4.79       9.29
