30

C       5.62      16.21      24.68
C       4.64      17.22      24.74
C       4.87      21.66      31.54
C       3.76      17.35      23.64
H       6.68      19.69      31.10
C       4.95      20.74      30.37
C       5.97      19.78      30.29
C       3.85      16.50      22.54
H       6.84      18.20      29.11
C       4.49      18.13      25.87
C       6.04      18.95      29.17
H       3.37      20.14      27.42
C       5.12      19.06      28.11
H       3.24      21.61      29.39
C       4.10      20.03      28.22
H       6.09      17.45      27.06
C       4.02      20.86      29.32
C       5.26      18.16      26.98
H       6.46      14.58      23.56
O       5.67      21.45      32.52
H       6.32      16.08      25.51
O       4.00      22.59      31.47
H       2.99      18.12      23.67
H       3.16      16.60      21.70
O       5.80      13.64      21.44
C       4.92      14.57      21.35
H       3.66      18.84      25.78
O       4.12      14.75      20.37
C       4.83      15.50      22.51
C       5.71      15.36      23.59
