24

H      15.14       3.87      10.28
H      15.77       5.68      14.13
H      18.22       5.78      13.60
H      20.24       5.61      13.11
H      22.59       5.40      12.30
H      21.03       4.04       8.51
N      17.10       4.36      10.75
N      19.64       4.47       9.99
O      13.08       4.14      11.64
O      13.42       5.19      13.64
O      24.24       4.31      10.83
O      23.63       4.38       8.64
C      15.79       4.30      11.04
C      15.27       4.77      12.25
C      16.16       5.31      13.19
C      17.52       5.36      12.89
C      17.97       4.87      11.65
C      19.39       4.88      11.25
C      20.44       5.27      12.10
C      21.75       5.16      11.65
C      22.00       4.70      10.35
C      20.90       4.39       9.54
C      13.79       4.69      12.53
C      23.41       4.45       9.89
