33

Cl       8.99       4.22       4.75
H       6.15       6.60       7.75
H       7.82       6.43       7.21
H       7.01       6.19       5.04
H       5.34       6.08       5.61
H       5.64       2.94       8.48
H       4.80       4.50       8.34
H       8.06       2.73       7.79
H       7.67       2.47       5.52
H       4.30       4.02       6.14
O       5.36       2.28       1.19
O       9.05       4.62      12.25
O       3.99       4.09       1.27
O       7.84       6.54      12.27
H       4.23       1.66       6.83
H       4.83       1.77       5.17
H       5.95       1.45       6.51
H       9.01       4.17       7.41
C       8.02       3.71       7.29
C       6.84       5.94       7.21
C       6.35       5.69       5.77
C       5.56       3.77       2.95
C       6.94       4.60       7.97
C       7.69       3.53       5.80
C       6.32       4.17       5.47
C       5.24       3.52       6.41
C       5.58       3.86       7.88
C       5.94       3.94       4.09
C       7.29       4.83       9.36
C       7.58       5.04      10.52
C       8.17       5.41      11.76
C       4.95       3.37       1.72
C       5.06       2.02       6.21
