22

H      14.65       2.10      13.05
H      17.01       7.73      22.49
Br      11.27       1.11      16.73
Br      17.88       8.30      17.51
Br      14.34       3.24      19.79
Br      17.68       4.19      16.73
N      12.64       1.41      13.01
N      17.63       9.40      21.33
C      14.49       2.29      15.99
N      11.70       1.14      13.97
C      16.88       6.14      19.94
N      17.88       9.61      19.99
C      16.10       3.55      17.60
C      15.84       4.00      18.87
C      15.27       2.78      16.80
C      16.47       5.07      19.49
C      13.76       1.82      13.62
C      17.27       8.11      21.51
C      12.25       1.39      15.17
C      17.68       8.45      19.36
C      13.59       1.84      15.02
C      17.28       7.43      20.27
