40

N       4.27      14.43      14.34
N       4.29      13.40      15.25
H       4.26      20.33      18.54
H       4.23      17.17      21.50
H       9.57      14.09      17.89
H       8.38      15.53      21.80
H       8.42      20.72      16.97
H       9.56      16.92      15.23
H       5.12      13.18      17.19
H       5.05      16.40      14.31
H       6.58      16.79      20.83
H       8.11      15.81      16.90
H       6.61      19.67      18.16
H       4.00      16.73      17.83
C       4.10      19.67      19.39
C       4.73      18.47      19.73
C       4.08      18.06      20.90
C       9.43      14.31      18.95
C       8.54      15.20      19.57
C       8.82      15.03      20.94
C       8.84      19.90      16.41
C       8.56      18.52      16.48
C       9.43      17.96      15.53
C       5.00      13.82      16.33
C       5.44      15.14      16.13
C       4.96      15.47      14.86
C       5.74      17.72      18.93
C       6.66      16.81      19.75
C       7.55      16.11      19.02
C       7.40      16.38      17.51
C       6.68      18.59      18.10
C       7.56      17.91      17.34
C       5.08      16.78      17.91
C       5.93      16.07      17.16
N       3.14      18.97      21.24
N       3.15      19.97      20.31
N       9.79      14.12      21.11
N      10.17      13.66      19.87
N      10.17      18.93      14.95
N       9.80      20.13      15.50
