18

O      11.23       4.09      18.09
O       4.67       7.26      22.76
O       3.60       5.24      22.62
H       9.94       6.92      20.12
N       9.96       6.13      19.49
H      10.85       5.86      19.09
C       9.03       5.14      19.63
C       5.79       4.25      21.02
C       9.12       3.86      19.07
C       5.68       5.52      21.57
C       7.00       4.11      20.31
C       7.80       5.27      20.34
C      10.20       3.32      18.28
H       5.02       3.50      21.14
S       7.73       2.84      19.39
S       7.05       6.54      21.23
O      10.07       2.12      17.84
C       4.57       6.04      22.38
