74

O       5.02      14.19       6.79
O       2.75      14.61      -6.32
O       4.34       1.23      -6.23
O       4.91      14.14      -6.85
O       2.45       1.82       6.70
O       2.91      14.75       6.14
O       4.64       1.38       6.28
O       2.18       1.75      -6.73
H       4.06      11.41       1.14
H       3.83       8.05       4.57
H       4.01      11.37      -1.31
H       3.57       7.93      -4.64
H       3.44       4.58      -1.21
H       3.52       4.61       1.24
H       5.74      12.00       6.05
H       2.09      13.36       4.25
H       2.06      11.35       2.77
H       5.68       9.95       4.63
H       5.53       2.76       4.39
H       5.61       4.77       2.92
H       1.86       6.10       4.56
H       1.75       4.04       5.98
H       5.25       2.61      -4.38
H       5.37       4.63      -2.91
H       1.52       3.99      -6.00
H       1.67       6.05      -4.60
H       2.00      13.32      -4.32
H       5.51      11.82      -6.27
H       5.44       9.77      -4.84
H       1.97      11.32      -2.82
C       3.95      14.00       6.12
C       3.94      10.46       0.61
C       3.76       8.01       0.68
C       3.83       9.26       2.80
C       3.83       9.26       1.38
C       3.82       8.04       3.48
C       4.93      11.84       5.34
C       4.90      10.70       4.54
C       2.87      11.49       3.49
C       2.88      12.61       4.31
C       3.81      13.91      -6.24
C       3.90      10.44      -0.75
C       3.72       7.99      -0.75
C       3.68       9.18      -2.90
C       3.75       9.22      -1.48
C       3.62       7.95      -3.55
C       3.30       1.96      -6.14
C       3.56       5.53      -0.68
C       3.61       6.73      -2.86
C       3.65       6.73      -1.45
C       3.37       3.17      -5.26
C       3.53       5.48      -3.66
C       3.77      12.69      -5.37
C       4.74      11.69      -5.52
C       4.69      10.55      -4.72
C       3.71      10.41      -3.73
C       2.74      11.43      -3.58
C       2.76      12.55      -4.40
C       3.57       2.07       6.14
C       3.61       5.55       0.68
C       3.78       6.81       2.83
C       3.74       6.77       1.41
C       3.64       3.28       5.27
C       2.60       4.22       5.31
C       2.66       5.36       4.52
C       3.74       5.57       3.64
C       4.77       4.61       3.59
C       4.73       3.49       4.41
C       3.92      12.80       5.23
C       3.87      10.51       3.60
C       2.37       4.14      -5.33
C       2.45       5.29      -4.54
C       4.53       4.49      -3.59
C       4.46       3.36      -4.40
