16

O      17.30       6.57      30.99
O      15.04       6.39      30.67
H      18.23      11.86      27.83
H      14.08       8.39      29.20
C      16.13      13.28      26.49
C      16.17       6.96      30.52
O      15.00      13.62      26.00
S      14.65      11.19      27.54
C      17.23      11.44      27.89
C      16.14      12.05      27.29
S      17.67       9.05      29.48
C      15.46       9.98      28.46
C      16.85      10.26      28.56
C      15.08       8.80      29.13
O      17.25      13.89      26.36
C      16.17       8.20      29.73
