42

H       9.34       1.41       9.48
H       5.12       0.72       9.31
H       9.57      -0.83       9.16
H       5.36      -1.50       9.93
H       6.33       1.09       7.31
H       8.08       1.17       7.34
H       3.99      -1.04       7.79
H       8.01      -3.19       6.55
H       6.66      -2.09      11.70
H       8.72      -0.82      11.80
H       5.97       0.73      11.94
H       8.18       2.14      11.45
C       7.11       5.37       9.48
C       8.52       0.88      10.00
C       8.77      -0.66       9.88
C       6.24      -0.91      10.20
C       7.50      -3.99       9.58
C       7.18       1.27       9.31
C       7.45      -1.35       9.29
C       7.28      -0.81       7.83
C       7.21       0.74       7.86
C       7.54      -2.79       9.39
C       7.06       2.71       9.32
C       7.06       3.92       9.38
C       7.45      -5.44       9.70
C       5.96       0.60      10.01
S       5.83      -1.53       6.85
S       8.71      -1.21       6.62
O       6.02       6.00       9.26
O       6.20      -2.87       6.46
O       4.64      -1.76       7.93
O       8.21      -0.85       5.33
O       9.92      -0.62       7.11
O       8.89      -2.78       6.76
O       6.54      -1.13      11.58
O       9.22      -1.24      11.08
O       5.55       1.23      11.21
O       8.24       5.86       9.79
O       8.51       1.23      11.38
O       6.31      -5.93       9.96
O       8.54      -6.05       9.52
O       5.33      -0.56       5.92
