42

C      15.67       8.28       8.01
C      15.65       8.30       9.22
C      15.74      10.86      13.21
C      16.31      11.12      14.39
C      14.94       5.82      14.57
C      15.54       6.01      13.38
N      15.65       7.17      11.30
N      15.63       9.56      11.22
N      15.63       8.44      13.33
N      14.52       8.20       5.94
N      16.92       8.31       6.00
N      15.77       8.22       3.89
H      13.92       9.34       2.14
H      12.50       7.78       4.40
H      17.69       7.00       2.30
H      19.02       8.67       4.54
O      15.38      13.29      14.54
O      17.16      12.78      15.85
H      15.33      11.68      12.61
H      16.80      10.34      14.98
H      14.40       6.61      15.09
H      15.97       5.16      12.85
O      16.05       3.80      14.95
O      13.97       4.03      15.82
C      16.30      12.50      14.96
C      14.98       4.45      15.17
C      15.60       7.28      12.65
C      15.64       8.35      10.65
C      15.67       9.55      12.57
O      20.54       8.61       2.57
O      20.16       6.67       1.45
O      11.08       7.73       2.36
O      11.43       9.71       1.28
C      19.82       7.60       2.25
C      11.78       8.75       2.05
C      14.62       8.22       4.59
C      15.70       8.26       6.58
C      16.89       8.24       4.65
C      13.13       8.80       2.67
C      13.34       8.23       3.87
C      18.45       7.57       2.83
C      18.20       8.20       3.99
