68

H      -5.81       5.26       9.94
H      -5.37       5.56      13.10
H      -4.43       5.50      14.56
H      -5.80       6.62      14.44
H      -3.58       4.61      12.34
H      -1.87       4.81      11.96
H      -2.44       4.97      13.62
H      -4.10       4.84      10.05
H      -5.07       5.07      11.50
H      -2.03       9.27      13.57
H      -2.16      10.90      12.88
H      -3.31      10.35      14.12
H      -0.79       8.95      11.79
H      -0.83       8.91      10.02
H      -1.26      10.40      10.87
H      -7.34       6.85      10.68
H      -6.76       6.25      12.23
H      -7.56       7.83      12.14
H      -4.90      11.70      13.30
H      -5.19      12.48      11.73
H      -3.54      12.47      12.44
H      -1.90      10.38       8.58
H      -2.99      11.36       9.64
H      -3.62      10.58       8.16
H      -3.11       6.31      15.99
H      -4.56       7.34      16.18
H      -2.94       8.01      16.48
H      -0.24       5.77      13.27
H      -1.15       6.43      14.68
H       0.10       7.41      13.87
H      -6.92      10.09       9.23
H      -7.95       9.10      10.29
H      -7.03       8.34       8.95
H      -5.90       5.95       7.95
H      -4.13       5.66       8.00
H      -4.77       7.04       7.10
C      -1.99       6.70       9.98
C      -5.77       9.17      13.50
C      -5.55       7.88      11.30
C      -4.56       6.95      10.43
C      -6.87       7.15      11.63
C      -4.01       7.27      13.38
C      -4.89       5.45      10.50
C      -7.01       9.12       9.72
C      -4.91       6.43       8.00
C      -2.83       6.71      12.41
C      -4.96       6.18      13.89
C      -2.68       5.18      12.58
C      -2.73      10.04      13.25
C      -1.32       9.30      10.92
C      -4.47      11.89      12.31
C      -2.92      10.47       9.00
C      -3.51       7.33      15.85
C      -0.70       6.68      13.70
C      -3.64       9.56      12.11
C      -2.80       8.89      10.90
C      -4.76       8.45      12.60
C      -3.05       7.27      10.93
O      -0.97       6.12      10.48
O      -5.68       9.01      14.76
O      -5.87       9.04      10.55
O      -4.81       7.35       9.08
O      -6.66       9.89      12.94
O      -4.26      10.71      11.54
O      -3.34       9.28       9.65
O      -2.17       6.88       8.73
O      -3.33       7.82      14.53
O      -1.59       7.31      12.81
