64

H       8.07       6.72       1.32
H      11.18       9.05      -5.22
H      11.23       9.07       5.17
H      11.05       9.20      -7.73
H      11.10       9.02       7.68
H      11.86      14.39       2.13
H       8.14       4.72      -2.14
H       5.88      10.41      -7.09
H       6.73      10.60      -8.57
H       6.82      10.54       8.63
H       6.48      11.60       7.34
H       6.63      10.10      -4.03
H       6.18      11.16      -5.27
H       7.21      11.46       4.11
H       6.17      11.03       5.38
H      10.47      12.95      -1.32
C       7.99      10.27       7.02
C       8.00      10.27      -5.56
C       8.09      10.35       5.60
C       9.18       9.81      -4.97
C       9.25       9.90       4.98
C       9.03       9.94      -9.24
C       9.09       9.74       9.24
C      10.28       9.41      -5.73
C      10.34       9.41       5.70
C      10.21       9.50      -7.11
C       8.91       8.67       2.91
C       9.78      10.94      -2.91
C       9.62      11.07       2.87
C       8.70       8.69      -2.87
C       9.70      11.01       1.39
C       8.80       8.67      -1.39
C       9.30       9.84       0.71
C       9.29       9.81      -0.71
C       8.87       8.69       1.42
C      10.27       9.37       7.08
C       9.74      10.95      -1.42
C      10.11      12.13       0.67
C       8.35       7.57      -0.67
C      10.14      12.09      -0.74
C       8.41       7.58       0.74
C      10.44      13.45       1.33
C       7.72       6.37      -1.32
C       9.04       9.94      -7.75
C       9.10       9.78       7.75
C       7.91      10.31      -6.98
N       9.30       9.88       3.53
N       6.80      10.67       7.62
N       6.94      10.72      -4.77
N       7.00      10.79       4.84
N       9.25       9.79      -3.53
N       6.72      10.76      -7.55
O      10.24      11.87      -3.56
O       9.81      12.11       3.50
O       8.14       7.79      -3.50
O       9.66      14.38       1.37
O      11.73      13.51       1.72
O       6.51       6.20      -1.36
O       8.64       5.46      -1.73
O       7.93      10.22      -9.85
O      10.20       9.90       9.83
O       7.96       9.55       9.82
O      10.12       9.65      -9.84
O       8.62       7.68       3.56
