24

H       1.78       7.00       9.24
H       1.63       7.00      11.72
H       5.95       7.00       9.34
H       1.81       7.00      18.67
H       5.98       7.00      18.77
H       6.13       7.00      16.30
H       6.04       7.00      12.90
H       1.72       7.00      15.12
C       2.68       7.00       9.85
C       2.60       7.00      11.23
C       3.79       7.00      11.99
C       5.02       7.00      11.29
C       5.01       7.00       9.89
C       3.81       7.00      13.40
C       3.95       7.00      14.62
C       3.97       7.00      16.03
C       2.74       7.00      16.73
C       2.75       7.00      18.12
C       5.08       7.00      18.17
C       5.15       7.00      16.79
N       3.87       7.00       9.19
N       3.89       7.00      18.83
O       6.22       7.00      11.94
O       1.54       7.00      16.08
