28

N       7.16       6.71      18.17
H       9.43       7.86      19.20
C       7.29       9.50      21.31
H       6.02       5.39      16.43
C       8.12       3.16      14.90
H       5.14       7.70      19.36
C       8.50       9.10      20.72
H       9.43       9.51      21.11
H      10.26       4.90      16.91
C       6.93       3.83      15.23
N       8.26       6.23      17.77
H       5.14       9.35      21.28
C       8.50       8.19      19.67
C       7.31      10.47      22.47
O       8.45      10.81      22.91
C       6.93       4.87      16.15
H      10.24       3.02      15.22
O       6.94       1.63      13.53
C       7.28       7.68      19.19
O       6.18      10.86      22.92
C       8.14       5.24      16.77
O       9.21       1.54      13.56
C       6.07       8.11      19.76
C       9.34       4.59      16.42
H       6.00       3.51      14.76
C       6.07       9.01      20.82
C       9.32       3.55      15.49
C       8.09       2.02      13.92
