20

H      14.37       2.80       1.61
H      14.02       2.58       6.53
N      16.39       3.96       2.83
N      12.09       1.29       5.30
H      16.99       4.55       3.40
H      16.28       4.19       1.85
H      11.30       1.00       4.73
H      11.94       1.47       6.28
C      16.13       3.93       5.82
O      15.91       3.80       7.07
O      17.13       4.57       5.32
C      12.23       1.51       2.31
O      11.21       0.89       2.81
O      12.43       1.66       1.06
C      15.17       3.30       4.88
C      13.22       2.09       3.25
C      15.31       3.37       3.46
C      13.09       1.99       4.67
C      14.31       2.76       2.69
C      14.08       2.61       5.44
