16

C      -0.91      -7.47      14.79
C      -0.67      -6.67      13.68
C      -0.39      -7.33      12.47
H      -1.03      -9.48      15.59
H      -0.75      -5.59      13.72
H      -1.31      -7.58      16.92
H      -0.51      -6.08      16.40
N      -0.16      -6.85      11.20
N       0.01      -7.90      10.39
N      -0.09      -9.04      11.07
H      -2.23      -6.32      16.06
C      -1.26      -6.83      16.11
H      -0.53     -10.63      13.45
C      -0.35      -8.74      12.38
C      -0.57      -9.55      13.50
C      -0.84      -8.89      14.69
