32

H       0.76      14.01      12.71
H       4.57      15.26      11.14
H       5.65      17.34      11.98
H       5.65      19.27      13.52
H       4.62      20.52      15.40
H       0.87      19.29      17.04
H      -0.29      15.26      14.58
H      -1.35      16.66      16.18
H      -0.71      18.14      16.68
C       2.62      13.40      10.88
C       1.59      14.71      12.73
C       2.66      14.53      11.84
C       3.75      15.42      11.84
C       3.76      16.52      12.70
C       2.69      16.70      13.62
C       1.60      15.77      13.65
C       4.83      17.48      12.68
C       4.83      18.55      13.53
C       3.77      18.75      14.48
C       2.68      17.81      14.52
C       1.61      17.99      15.45
C       0.52      17.04      15.46
C       0.54      15.97      14.59
C       3.78      19.81      15.39
C       2.73      19.98      16.30
C       1.65      19.09      16.31
C       2.76      21.12      17.27
N      -0.50      17.19      16.38
O       1.49      12.87      10.64
O       3.72      13.04      10.34
O       1.67      21.42      17.85
O       3.89      21.69      17.46
