30

H       3.82       9.14      22.66
H       3.82       7.44      20.86
H      -0.50       7.44      20.87
H       3.86       4.42      17.68
H      -0.45       2.73      15.89
H      -0.46       4.43      17.69
H      -0.54       9.88      23.43
H       3.91       1.98      15.12
C       1.65       1.63      14.67
C       1.71      10.24      23.88
C       1.67       9.26      22.80
C       2.88       8.76      22.27
C       2.89       7.82      21.26
C       1.66       7.32      20.74
C       0.45       7.81      21.26
C       0.44       8.77      22.27
C       1.67       6.35      19.72
C       1.70       5.51      18.83
C       1.70       4.54      17.81
C       2.92       4.05      17.29
C       2.92       3.09      16.28
C       1.69       2.61      15.75
C       0.49       3.10      16.29
C       0.48       4.05      17.29
O       2.79       1.22      14.19
O       0.53       1.22      14.23
O       2.84      10.64      24.32
O       0.57      10.64      24.36
O      -0.76       9.21      22.73
O       4.12       2.66      15.83
