16

C      -0.09       8.15       1.80
C       0.31       8.55      -1.75
C      -1.08       7.18       1.61
C       1.30       9.50      -1.53
C      -0.20       8.07      -0.53
C       0.41       8.66       0.59
O      -1.45       6.69       3.85
O       1.78       9.85      -3.78
S      -1.39       6.90      -0.08
S       1.62       9.81       0.15
H       0.00       8.25      -2.75
F       0.36       8.57       2.99
O       2.97      11.02      -2.21
C       2.07      10.18      -2.58
C      -1.78       6.42       2.64
O      -2.64       5.55       2.27
