16

C      16.93       5.99      20.88
C      17.41       3.48      19.77
C      15.32       3.50      18.44
O      14.57       4.25      17.74
O      15.40       2.23      18.36
C      19.12       5.93      22.09
H      19.27       3.51      20.87
H      16.75       6.96      21.32
H      17.57       2.50      19.33
Cl      14.54       6.33      19.76
O      20.19       5.26      22.28
O      18.84       7.06      22.59
C      16.23       4.16      19.43
C      18.12       5.31      21.17
C      15.99       5.43      20.01
C      18.35       4.04      20.62
