24

H       7.48      -6.19      15.50
O       6.00      -7.26       9.77
O       5.89      -4.99       9.94
O       5.54      -5.49      21.62
O       3.28      -5.60      21.78
C       4.64      -4.81      15.11
C       3.71      -5.80      15.90
C       4.33      -5.67      19.68
C       5.90      -6.24      11.86
C       5.69      -4.87      16.28
C       4.73      -5.85      17.10
C       6.40      -6.08      15.62
C       5.38      -6.04      14.42
C       5.47      -7.06      16.39
C       4.43      -7.02      15.22
C       4.46      -5.76      18.48
C       5.70      -6.15      13.06
C       4.39      -5.58      21.11
C       5.95      -6.15      10.43
I       1.64      -5.60      16.14
I       4.01      -3.10      14.08
I       3.49      -8.69      14.37
I       6.67      -3.22      17.13
Cl       6.00      -8.51      17.16
