19

H      22.34      15.19       8.56
H      18.17      18.71       4.94
H      19.56      18.04       4.03
H      17.97      17.22       4.02
C      24.27      16.41       6.83
C      16.80      16.43       6.83
C      19.10      16.99       5.84
C      21.96      15.75       7.71
C      18.26      16.39       6.78
C      22.80      16.37       6.80
C      20.61      15.96       7.37
C      20.44      16.74       6.20
C      18.68      17.78       4.64
S      19.09      15.53       8.05
S      21.96      17.20       5.52
O      24.84      17.11       5.93
O      16.23      15.78       7.78
O      16.20      17.12       5.93
O      24.84      15.76       7.78
