20

C      24.19      -0.38      28.35
C      22.13       0.72      26.63
C      24.25      -0.48      26.96
C      22.09       0.82      28.05
C      23.25       0.05      26.14
C      23.07       0.29      28.88
C      25.06      -1.01      25.80
C      23.93      -0.41      24.87
H      22.97       0.41      29.96
H      26.05      -0.56      25.69
H      25.16      -2.11      25.77
H      23.37      -1.15      24.28
H      24.26       0.39      24.20
C      21.08       1.27      25.72
O      20.09       1.88      26.24
O      21.29       1.08      24.47
C      25.24      -0.93      29.25
O      25.09      -0.76      30.50
O      26.20      -1.55      28.67
F      21.05       1.44      28.66
