16

C       9.29       8.00       5.92
F      11.66       9.66       4.89
C       9.25      14.36       1.93
O      10.43       7.52       6.23
S       7.78       9.97       4.69
S      10.80      12.42       3.15
O       8.14       7.52       6.20
H       7.15      12.70       2.97
C      10.38       9.99       4.68
C       8.18      12.40       3.17
C       9.30       9.25       5.15
C       9.27      13.11       2.71
C       8.59      11.26       3.89
C       9.99      11.13       3.96
O       8.11      14.84       1.62
O      10.40      14.84       1.63
