10

C       0.58       4.85       9.03
C      -0.82       4.88       9.03
C      -0.79       6.00       7.00
N      -1.48       5.45       8.01
N       1.26       5.41       8.02
H       1.16       4.39       9.83
H      -1.41       4.45       9.83
C       0.60       5.99       7.01
H      -1.37       6.45       6.20
H       1.20       6.42       6.21
