20

N       4.84      10.86      12.79
N       4.74       8.30      12.79
H       5.72      10.73      10.89
H       3.85       8.43      10.89
H       3.96      10.81      10.89
H       5.62       8.35      10.89
H       3.62      10.82      14.49
C       4.75       8.81      11.39
C       4.82      10.35      11.39
H       5.95       8.34      14.49
C       3.61      10.40      13.48
C       5.97       8.76      13.48
H       2.75      10.85      12.96
H       6.83       8.31      12.96
C       6.03      10.30      13.49
C       3.55       8.86      13.49
H       6.93      10.69      12.99
H       2.65       8.47      12.99
H       6.03      10.71      14.51
H       3.55       8.45      14.51
