15

N       2.83      10.67       0.00
C       1.01       9.63      -1.20
H       2.75      10.59      -2.07
O       0.99       9.33      -3.61
C       1.01       9.63       1.20
H       2.75      10.59       2.07
O       0.99       9.33       3.61
C       0.39       9.30       0.00
H      -0.56       8.76       0.00
O      -0.72       8.57      -2.43
C       0.40       9.16      -2.47
C       2.23      10.32      -1.15
O      -0.72       8.56       2.43
C       0.40       9.16       2.47
C       2.23      10.32       1.15
