48

C       1.85      -5.13      11.69
H       4.28      -1.96       1.78
H       4.48      -5.34      11.10
H       0.56      -5.11       9.31
H       1.34      -4.20       4.71
H      -0.22      -4.30      11.43
C       2.39      -5.49      12.93
C       5.24      -1.72       2.22
H       9.37      -5.65       6.49
H       7.75      -6.12       5.89
H       9.06      -6.99       8.54
H       7.37      -7.32       8.12
H       8.07      -8.65       6.12
H       8.86      -9.29       7.57
H       9.78      -8.28       6.45
C       8.35      -5.93       6.80
C       8.37      -7.17       7.69
H       7.86      -1.56       4.18
C       8.79      -8.41       6.91
H       3.33      -3.15       3.57
N       0.41      -4.75      13.41
H       7.25      -3.48       5.35
N       1.57      -5.27      13.96
N       6.06      -0.82       1.63
N       7.20      -0.68       2.37
O       7.83      -4.76       7.48
H       6.51      -5.36       9.65
F       3.61      -6.01      13.13
F       0.09      -4.94       6.86
C       7.07      -1.50       3.43
C       5.86      -2.21       3.38
C       3.98      -3.49       4.38
C       5.34      -3.16       4.37
C       6.18      -3.67       5.38
C       5.64      -4.33       6.49
C       4.23      -4.50       6.59
C       3.40      -4.15       5.47
C       6.45      -4.77       7.61
C       5.88      -5.10       8.80
C       4.45      -5.10       8.96
C       3.64      -4.88       7.81
C       2.21      -4.95       7.95
C       1.45      -4.77       6.75
C       1.99      -4.38       5.57
C       3.85      -5.24      10.22
C       2.45      -5.18      10.36
C       0.58      -4.68      12.06
C       1.64      -5.10       9.22
