20

H       6.20       1.79       7.45
H      10.33       1.86      10.86
H      11.24       1.87       9.33
H      11.25      -0.66       9.34
H      10.33      -0.65      10.87
C       8.02       3.50       8.59
C       8.14      -2.36       8.55
C       8.07       2.02       8.53
C       8.11      -0.88       8.51
C       9.11       1.29       9.10
C       7.08      -0.11       7.91
C       9.12      -0.11       9.09
C       7.04       1.28       7.92
C      10.41       1.39       9.87
C      10.42      -0.19       9.87
O       6.90       4.07       8.38
O       7.05      -2.98       8.39
O       9.29      -2.89       8.74
O       9.12       4.09       8.86
F       6.06      -0.75       7.26
