28

Br       1.02      27.63      21.33
Br       3.08      24.99      25.89
C       2.05      27.39      24.23
C       2.06      16.36      17.86
O       1.08      27.60      25.02
O       3.03      28.18      24.02
O       1.08      16.15      17.08
O       3.03      15.58      18.08
C       2.06      17.67      18.62
C       1.60      17.72      19.95
C       1.59      18.94      20.65
C       2.05      20.13      20.04
C       2.52      20.06      18.70
C       2.51      18.85      18.00
C       2.05      21.35      20.74
C       2.05      22.40      21.35
C       2.05      23.63      22.06
C       2.52      23.69      23.40
C       2.50      24.90      24.10
C       2.05      26.08      23.48
C       1.60      26.03      22.15
C       1.59      24.82      21.45
Br       1.03      16.12      20.77
Br       3.09      18.76      16.21
Br       3.17      21.64      17.89
Br       0.94      19.02      22.42
Br       3.17      22.12      24.20
Br       0.93      24.73      19.68
