50

H       5.13       8.55      11.54
O       5.53       7.80      20.70
O       7.95       7.55       9.50
O       5.76       6.96       9.44
O       7.76       7.39      20.59
O       8.59       5.59      11.67
H      10.28       6.43      12.58
H       8.03       5.98      18.55
H       9.79       7.15      11.01
H      10.82       4.28      11.35
H      10.43       5.08       9.82
H      12.26       6.79      10.26
H      12.93       5.15      10.24
H      12.65       5.97      11.79
H       4.63      11.20      18.95
H       5.43      11.01      17.36
H       6.72      10.39      20.08
H       7.49      10.18      18.51
H       9.04       4.81      14.01
H       7.20      12.68      18.06
H       8.24      12.33      19.45
H       6.57      12.87      19.71
H       4.06       9.64      16.08
H       8.91       4.89      16.48
H       4.11       9.48      13.61
C       6.61       7.59      20.07
C       6.85       7.22      10.04
C       5.81       7.96      12.16
C       8.29       5.55      15.87
C       7.38       6.59      17.93
C       6.78       7.18      11.53
C       6.54       7.51      18.57
C       7.66       6.39      12.30
C       5.70       8.34      17.80
C       7.55       6.36      13.70
C       5.66       8.21      16.40
C       6.60       7.22      14.34
C       6.55       7.29      15.76
C       5.73       8.03      13.56
C       4.80       8.89      14.22
C       7.41       6.46      16.54
C       8.37       5.50      14.51
C       4.77       8.99      15.59
C       9.90       6.21      11.56
C      10.83       5.25      10.84
C      12.24       5.82      10.78
C       5.39      10.63      18.40
C       6.76      10.79      19.06
C       7.21      12.25      19.07
O       4.89       9.27      18.41
