26

C       6.93       2.40       5.96
C       6.93       1.35       7.01
C       6.93      -0.64       9.01
H      10.11      -1.96      10.64
H       9.47      -1.98       8.98
H       8.69       2.11       7.99
H       8.71       0.34       9.74
H       9.79      -3.51       9.84
C       6.93      -1.68      10.05
H       5.17       0.37       6.25
H       5.15      -1.38       8.02
H       4.06      -1.48      11.87
H       3.75      -2.28      10.32
H       4.38      -0.62      10.35
N       7.59      -3.31      11.43
N       6.26      -3.07      11.67
O       7.67       3.43       6.15
O       6.19       2.21       4.93
C       7.93       1.33       8.00
C       7.93       0.34       8.98
C       8.02      -2.47      10.46
C       9.42      -2.48       9.95
C       5.93       0.36       7.03
C       5.93      -0.61       8.02
C       5.84      -2.10      10.84
C       4.43      -1.59      10.84
