44

H      10.22      15.35      11.29
H       8.66      18.93       8.06
H      11.39      18.99      11.39
H       7.50      15.28       7.95
H      11.78      11.98      10.93
H      11.75      12.19      12.71
H      11.92      13.62      11.65
H       6.96      20.64       7.69
H       7.09      22.29       8.42
H       7.12      22.08       6.64
H      13.65      22.26      11.81
H      13.23      22.31      10.07
H      13.62      20.74      10.86
H       5.65      11.97       9.27
H       5.23      12.02       7.52
H       5.27      13.54       8.47
C      10.21      23.10       9.48
C       8.67      11.18       9.86
C      10.25      21.60       9.50
C       8.63      12.68       9.84
C       9.43      20.87       8.61
C       9.45      13.41      10.73
C       9.29      19.49       8.74
C       9.59      14.78      10.60
C       9.98      18.82       9.76
C       8.90      15.45       9.58
C      10.86      19.53      10.61
C       8.03      14.75       8.73
C      10.99      20.91      10.47
C       7.89      13.37       8.86
C      11.46      12.63      11.75
C       7.42      21.64       7.59
C      13.15      21.73      11.00
C       5.73      12.55       8.34
N       9.87      17.44      10.02
N       9.01      16.84       9.32
O      11.31      23.74       9.39
O       7.57      10.54       9.95
O       9.05      23.61       9.60
O       9.83      10.67       9.74
O      10.02      12.72      11.77
O       8.85      21.56       7.57
O      11.77      21.60      11.39
O       7.11      12.68       7.95
