24

F      12.91       9.40      20.68
H      16.03      12.24      20.34
F      11.20      11.60      22.12
F      15.41      10.24      22.48
C      13.73      10.42      16.00
F      14.55      14.46      21.70
C      14.57      11.08      21.82
F      12.06      13.64      19.89
C      13.32      10.65      20.96
C      13.70      12.50      23.92
C      13.79      11.38      18.47
C      13.68      13.50      26.37
C      12.89      12.80      20.55
C      12.45      11.76      21.65
C      13.73      12.86      25.08
C      13.77      11.04      17.30
C      14.14      13.20      21.42
C      13.69      12.18      22.55
C      13.78      11.69      19.84
C      15.02      12.11      20.73
O      14.81      13.75      26.93
O      12.54      13.81      26.81
O      14.87      10.13      15.48
O      12.59      10.17      15.51
