16

C       2.31       3.59      10.25
C       1.05       0.84       8.07
O      -0.14      -1.37       5.74
O       3.50       5.88      12.49
C       1.00      -0.97       6.12
C       2.36       5.46      12.13
C       3.34       2.49       8.35
C       0.02       1.93       9.98
N       4.26       2.41       7.64
N      -0.89       2.04      10.71
C       1.02       0.01       7.18
C       2.34       4.44      11.12
O       2.14      -1.34       5.67
O       1.23       5.85      12.58
C       1.12       1.80       9.09
C       2.24       2.62       9.24
