15

C      13.75       6.49       8.95
C      13.54       6.13       7.46
C      14.74       6.65       6.65
O      14.79       6.02       9.56
O      15.93       6.43       7.05
O      14.50       7.33       5.61
H      12.19       7.80       7.06
H      12.08       6.47       5.89
H      11.39       6.29       7.53
O      12.89       7.21       9.52
C      12.22       6.71       6.95
C      13.50       4.59       7.34
H      12.74       4.18       8.03
H      13.23       4.30       6.32
H      14.47       4.13       7.57
