39

F       4.64       3.84      12.48
F       5.58       3.43      10.55
C       4.76       6.49       8.97
F       5.79       5.40      11.46
C       4.09       5.26       9.08
C       3.64       4.85      10.50
C       5.15       6.98       7.72
C       4.87       6.24       6.56
C       4.24       5.00       6.68
C       3.84       4.52       7.93
C       5.93       8.26       7.71
C       5.16       6.77       5.19
C       2.99       6.08      11.15
C       2.22       6.89      10.31
C       1.75       8.13      10.72
C       2.04       8.57      12.02
C       2.71       7.73      12.90
C       3.19       6.49      12.48
C       0.97       8.94       9.72
C       1.76       9.98      12.40
C       4.91       4.37      11.26
C       2.58       3.70      10.51
F       3.09       2.51      10.11
F       1.54       4.01       9.69
F       2.06       3.52      11.76
H       4.97       7.09       9.85
H       4.03       4.44       5.78
H       3.32       3.56       7.97
H       2.03       6.59       9.28
H       2.92       8.08      13.91
H       3.76       5.87      13.17
O       7.06       8.22       7.13
O       5.43       9.26       8.29
O       5.55       5.94       4.31
O       4.95       8.02       4.93
O       1.54       9.11       8.58
O      -0.18       9.34      10.04
O       1.39      10.30      13.57
O       1.89      10.87      11.48
