34

H       4.40       0.36       5.59
H       2.79       1.47      11.88
O       2.06       2.83       7.43
O       3.55       2.13       9.00
H       2.00      -3.55       5.19
H      -4.36       0.50       9.20
O       3.95      -1.53       6.89
O       3.52       0.52       6.00
O       1.24       3.18      11.64
O       2.11       1.11      11.26
O      -2.97      -0.06       6.56
O      -4.39       0.31       8.24
O       1.55      -3.71       7.48
H      -1.34       2.71      11.23
O       1.63      -2.68       5.45
H      -3.18       2.01       9.76
C       0.16       1.69      10.07
C      -1.13       2.04      10.40
C      -2.20       1.56       9.61
C      -2.00       0.56       8.67
C      -0.67       0.06       8.43
C       0.41       0.81       8.97
C       1.68       0.73       8.30
C       1.94      -0.37       7.49
C       0.96      -1.39       7.33
C      -0.35      -1.14       7.70
O      -1.15      -3.09       6.60
O      -2.34      -2.25       8.34
C       2.53       2.00       8.25
C      -1.36      -2.22       7.53
C       3.25      -0.54       6.79
C       1.22       2.12      11.04
C      -3.13       0.22       7.74
C       1.39      -2.73       6.79
