24

H       0.36      -3.73      10.31
H       0.99      -6.22       6.12
C       0.56      -2.74       2.43
H       1.18      -1.29       6.27
C       0.20      -6.58       8.71
C       0.56      -5.22       8.63
H       0.61      -0.11       4.41
N      -0.25      -5.71      10.68
N       0.09      -0.59       2.42
H       0.65      -3.74       2.03
H       0.25      -7.36       7.95
N       0.09      -1.72       1.67
N      -0.29      -6.87       9.93
C       0.26      -4.73       9.91
C       0.85      -2.26       3.73
F       1.17      -5.14       3.84
F       1.10      -2.38       8.55
C       1.14      -4.42       5.01
C       1.05      -5.14       6.18
C       0.95      -4.49       7.43
C       1.10      -3.10       7.38
C       1.17      -2.38       6.20
C       0.55      -0.89       3.65
C       1.12      -3.02       4.95
