28

H      31.98      18.71       9.90
C      28.83      19.62       7.03
C      33.93      17.20       8.02
O      34.33      20.16       6.47
O      28.44      16.66       8.58
O      31.16      15.72       7.06
O      31.60      21.09       7.99
O      33.20      19.50       4.60
O      29.57      17.32      10.45
H      28.92      20.39       6.24
H      28.09      18.88       6.71
H      28.45      20.11       7.94
H      33.85      16.43       8.81
H      34.32      16.71       7.11
H      34.68      17.94       8.34
H      31.58      15.48       6.22
H      31.18      21.34       8.83
H      30.78      18.10       5.15
C      31.04      18.23       6.21
C      31.73      18.59       8.84
C      30.16      18.98       7.27
C      32.60      17.83       7.78
C      30.45      17.84       8.34
C      32.31      18.97       6.71
C      31.30      17.09       7.25
C      31.46      19.72       7.80
C      33.36      19.59       5.86
C      29.41      17.22       9.19
