22

C       5.43      16.39       1.33
C       6.08      16.20       2.56
C       5.35      16.31       3.73
C       3.40      16.77       2.56
C       4.06      16.68       1.34
N       5.71      17.01      -0.99
N       4.03      16.60       3.74
H       9.06      15.05      -1.28
H       7.70      14.95       0.83
C       8.48      16.51      -3.48
H       6.03      17.59      -2.96
H       7.15      16.05       2.62
C       7.67      16.38      -2.25
O       9.68      16.06      -3.52
H       5.83      16.19       4.70
C       8.12      15.60      -1.18
O       7.97      17.08      -4.51
C       7.37      15.55      -0.01
H       2.34      17.01       2.60
C       6.19      16.31       0.06
H       3.52      16.84       0.41
C       6.44      17.03      -2.11
