16

C       0.45       3.64       9.26
O      -0.23       2.36      12.61
C       0.45       6.05       9.26
H       0.55       2.68       8.74
C       0.56       4.85       8.57
O      -0.23       7.33      12.61
C       0.08       4.85      11.32
O       0.35       1.26      10.71
H       0.55       7.01       8.74
H       0.74       4.85       7.50
C       0.10       2.32      11.38
O       0.35       8.43      10.71
H      -0.09       4.85      12.40
C       0.10       7.37      11.38
C       0.21       3.63      10.64
C       0.21       6.06      10.64
