20

H       1.20      -2.14       7.86
C      11.93      -3.16       8.43
H       1.24      -4.74      11.33
H      11.89      -2.10       8.19
H      11.12      -6.20       9.39
C      11.54      -5.26       9.04
N      -0.31      -3.08       9.01
C      10.92      -4.00       8.95
C       0.96      -2.78       8.71
N      -0.29      -3.90      10.11
N      13.05      -3.88       8.22
C       0.98      -4.11      10.49
N      12.80      -5.17       8.59
C       1.84      -3.40       9.62
C       9.58      -3.70       9.21
C       8.37      -3.52       9.38
C       7.04      -3.38       9.51
C       5.81      -3.32       9.58
C       4.47      -3.31       9.63
C       3.24      -3.34       9.64
