21

H       0.53       4.09       8.83
H       2.28       3.36       7.19
H       4.04       1.71       7.94
H       4.01       0.91      10.31
H       2.80      -2.59      17.14
C       1.32       3.39       9.11
C       2.30       2.98       8.21
C       3.28       2.08       8.63
C       3.25       1.61       9.95
C       2.23       2.05      10.79
C       2.03       1.61      12.16
C       1.98       0.65      14.00
C       2.06      -0.20      15.16
C       2.42      -1.73      16.61
N       1.28       2.93      10.37
N       0.95       2.10      12.81
N       0.91       1.49      14.00
N       2.71       0.69      12.88
N       1.12      -0.06      16.10
N       1.35      -1.03      17.02
N       2.90      -1.22      15.45
