17

H       8.31       4.16       6.15
H      10.84       4.08       6.16
H      10.84       5.46      11.18
H      10.95       7.06      10.41
H       8.32       5.59      11.13
H       8.73       8.25       9.62
H       7.17       7.59      10.15
H       8.39       8.09      11.36
C       8.91       5.52       9.03
C       8.88       4.54       6.99
C      10.28       4.49       7.00
C      10.30       5.45       9.05
C      10.41       6.10      10.40
C       8.82       6.21      10.38
C       8.24       7.62      10.38
N       8.17       5.06       8.02
N      11.02       4.95       8.05
