12

O      12.35      15.47       9.92
O      10.92      19.65      13.07
H       9.15      18.11      11.75
H      14.12      17.16      11.04
C      12.10      16.53      10.61
C      11.17      18.69      12.24
C      10.21      17.92      11.59
C      13.06      17.36      11.17
O       9.80      16.06      10.19
O      13.47      19.22      12.58
C      10.61      16.84      10.78
C      12.66      18.44      11.99
