24

F      15.37       7.99      20.63
H      16.25       3.86      20.33
F      14.91       5.44      22.49
F      18.94       4.03      21.59
C      16.02       5.73      21.79
C      16.26       7.01      20.90
F      19.44       6.58      19.74
C      17.73       5.83      23.85
C      15.69       6.73      15.96
C      16.58       6.22      18.40
C      18.44       5.33      26.35
C      18.32       6.29      20.44
C      17.68       7.21      21.54
C      17.99       5.67      25.03
C      16.26       6.41      17.24
C      18.06       5.02      21.33
C      16.89       6.08      19.77
C      17.44       5.95      22.48
C      16.65       4.81      20.69
O      18.09       4.20      26.81
O      14.87       5.90      15.46
O      19.20       6.19      26.94
O      16.01       7.87      15.45
F      18.19       8.39      21.98
