26

C       1.95       2.74       2.44
C      -1.95      -2.74      -2.44
C       1.09       2.28       1.44
C      -1.09      -2.28      -1.44
C       0.52       1.01       1.55
C      -0.52      -1.01      -1.55
C       0.84       0.25       2.68
C      -0.84      -0.25      -2.68
C       1.69       0.79       3.64
C      -1.69      -0.79      -3.64
C      -0.39       0.46       0.49
C       0.39      -0.46      -0.49
H       2.40       3.73       2.39
N       2.25       2.01       3.52
H      -2.40      -3.73      -2.39
N      -2.25      -2.01      -3.52
H       0.87       2.91       0.58
H      -0.87      -2.91      -0.58
H       0.42      -0.74       2.85
H      -0.42       0.74      -2.85
H       1.94       0.24       4.55
H      -1.94      -0.24      -4.55
H      -1.20      -0.11       0.95
H       1.20       0.11      -0.95
H      -0.84       1.28      -0.08
H       0.84      -1.28       0.08
