18

O      14.38      14.73      13.46
H      14.33      15.96      11.29
C      12.51      14.52       8.78
O      10.78      12.66       7.58
C      12.11      13.36       9.44
C      13.32      15.46       9.44
C      13.72      15.22      10.77
C      11.19      12.41       8.77
C      13.68      16.72       8.77
C      13.32      14.06      11.42
O      14.38      17.60       9.41
H      12.18      12.23      11.29
O      10.78      11.37       9.41
O      13.26      12.80      13.46
O      13.26      16.95       7.58
H      12.18      14.72       7.77
C      13.68      13.85      12.84
C      12.51      13.12      10.77
