36

C       7.41       4.99      31.66
C       8.63       4.34      31.92
C       8.67       2.95      31.98
C       7.48       2.20      31.76
C       6.26       2.87      31.48
C       6.24       4.27      31.44
C       7.51       0.79      31.83
C       7.49      -0.43      31.88
H       9.52       4.94      32.09
H       5.31       4.81      31.25
C       7.46      -1.84      31.94
C       8.64      -2.59      31.70
C       6.20      -3.90      32.24
C       6.23      -2.51      32.22
H       5.27      -4.44      32.43
C       7.37      -4.63      32.01
C       8.58      -3.99      31.76
H       9.48      -4.59      31.58
N       5.11       2.12      31.30
N       9.86       2.27      32.22
N       5.08      -1.75      32.40
N       9.84      -1.92      31.47
H       5.26       1.16      31.00
H       4.36       2.58      30.81
H       9.76       1.33      32.59
H      10.59       2.81      32.67
H       5.24      -0.79      32.72
H       4.33      -2.21      32.89
O       8.51       7.09      31.76
O       6.24       7.07      31.58
H       9.74      -0.98      31.11
H      10.56      -2.47      31.01
O       6.20      -6.71      32.05
O       8.47      -6.72      31.98
C       7.38       6.49      31.66
C       7.34      -6.13      32.02
