25

O      -4.65      11.16       0.68
O      -4.33      15.54       6.67
O      -5.13      13.87       1.00
O      -2.64      12.65       6.92
O      -4.59      16.89       4.86
O      -4.54       9.93       2.59
H      -6.72      12.50       0.75
H      -6.48      13.73      -0.52
H      -7.19      14.21       1.05
H      -1.93      12.83       6.28
H      -4.98      15.67       2.76
H      -4.59      10.37       5.42
H      -2.88      10.70       5.06
H      -4.63      12.36       6.97
C      -4.45      15.76       5.42
C      -4.19      13.27       5.00
C      -4.45      14.56       4.54
C      -4.77      14.69       3.18
C      -4.85      13.58       2.31
C      -4.60      12.26       2.79
C      -4.26      12.17       4.14
C      -3.87      11.17       5.20
C      -3.84      12.40       6.21
C      -4.61      11.03       1.95
C      -6.46      13.55       0.56
