16

C       2.92       8.25      13.02
O       0.56       6.95      10.57
H       3.85       9.18      14.73
C       0.49       8.25      13.02
O       2.85       6.95      10.57
C       1.71       9.24      14.86
H      -0.44       9.18      14.73
H       3.85       7.98      12.52
C       1.71      10.01      16.14
C       1.71       7.92      12.40
H      -0.44       7.98      12.52
C       1.71       7.22      11.07
C       2.92       8.91      14.24
O       2.84      10.32      16.63
O       0.57      10.32      16.63
C       0.49       8.90      14.24
