24

H      -4.56      -5.48      14.39
H      -5.27      -5.60      15.95
H     -10.02      -1.49      14.41
H      -9.92      -2.20      12.85
H      -7.02      -3.48      17.77
H      -5.48      -3.96      17.17
H      -7.37      -3.22      11.03
H      -8.29      -1.90      11.63
N      -5.05      -5.01      15.15
N      -9.43      -1.82      13.65
N      -6.49      -3.97      17.05
N      -7.99      -2.87      11.75
O      -6.03      -4.46      11.05
O      -4.56      -5.22      12.58
O      -9.77      -1.41      16.21
O      -8.61      -2.58      17.75
C      -5.64      -4.59      12.27
C      -8.85      -2.25      16.52
C      -6.45      -4.00      13.35
C      -8.03      -2.84      15.45
C      -6.13      -4.24      14.72
C      -8.36      -2.61      14.08
C      -6.90      -3.65      15.75
C      -7.57      -3.17      13.04
