14

H       1.46       0.90       7.75
C       2.59       2.78       7.90
O       3.74       3.27       8.11
O       3.27      -3.72       7.91
O       1.52       3.44       7.64
O       5.51      -3.88       8.28
C       4.42      -3.22       8.14
C       2.46       1.30       7.93
C       4.53      -1.75       8.24
H       2.48      -1.41       7.96
C       3.45      -0.94       8.11
C       3.52       0.49       8.14
H       4.49       0.96       8.31
H       5.53      -1.34       8.40
