31

C       3.79       0.53       5.24
C       5.93       1.40       4.28
H      -0.43       0.22       5.93
H       4.26       2.53       2.53
C       1.57       2.63       2.26
C       1.71      -0.38       6.22
H       0.59       0.93       4.12
H       4.37       0.06       6.04
C       6.83       1.16       3.26
H       6.63       0.85       2.23
C       7.95       1.75       5.02
H       8.78       2.03       5.66
C       1.11       3.80       0.49
C       0.35       3.26       2.45
H       1.16       4.24      -0.50
C       0.07      -1.17       7.48
H      -0.30       3.27       3.33
C       2.22      -1.24       7.18
H      -0.93      -1.32       7.87
H       3.24      -1.56       7.35
N       6.66       1.78       5.40
N       0.34      -0.36       6.43
C       4.47       1.27       4.26
N       8.10       1.38       3.73
C       3.73       1.90       3.25
N       2.04       2.99       1.01
C       2.33       1.82       3.21
N       0.06       4.01       1.33
C       1.68       1.04       4.17
C       2.39       0.40       5.19
N       1.19      -1.72       7.96
