38

C       6.96       5.87       2.19
C       5.45       4.83       0.78
C       5.88       5.56      -0.32
C       6.91       6.50      -0.14
C       7.45       6.65       1.15
C       7.27       7.12      -2.53
C       8.03       8.11      -3.36
C       8.32       9.43      -2.96
C       9.05      10.27      -3.80
C       9.47       9.81      -5.05
H       8.07       8.02      -0.88
C       8.43       7.68      -4.63
C       8.66       4.42      -9.96
C       9.14       8.52      -5.48
H       8.18       6.62      -6.79
C      10.32       6.52      -9.35
C      10.51       5.72     -10.46
C       9.24       6.25      -8.49
C       8.41       5.16      -8.82
C       9.58       8.11      -6.85
H       7.37       5.94       3.19
H       4.67       4.08       0.67
H       5.44       5.40      -1.30
H       8.26       7.35       1.35
H       7.93       9.83      -2.02
H       9.24      11.30      -3.51
H      10.04      10.46      -5.71
H       8.18       6.65      -4.88
H       7.55       4.90      -8.19
H       8.02       3.60     -10.25
H      11.34       5.90     -11.14
H      11.02       7.33      -9.14
N       5.97       4.97       2.02
N       7.41       7.30      -1.16
N       9.70       4.69     -10.79
N       8.97       6.96      -7.33
O       6.63       6.20      -3.03
O      10.42       8.74      -7.49
