43

C       7.56       7.40       1.30
H       6.49       3.67       7.63
H       8.16       4.30       7.80
H       7.85       2.86       6.77
C       7.45       3.82       7.11
H       3.76       8.16       4.53
C       4.25      10.34       6.34
C       7.40      10.03       4.69
H       4.81       9.48       8.15
C       3.49       6.15       4.24
H       4.08      11.32       6.81
H       3.26       9.86       6.18
H       4.71      10.52       5.37
H       8.83       8.67       5.31
H       8.22      10.56       4.20
H       6.79      10.76       5.23
H       6.80       9.55       3.90
N       5.14       9.56       7.19
N       7.96       9.06       5.65
N       3.78       7.31       5.09
H       8.32       6.88       7.70
H       4.29       5.93       3.52
H       2.56       6.33       3.69
O       8.43       6.59       0.80
O       5.64       5.77      12.21
H       3.35       5.26       4.87
H       4.63       5.37       7.26
O       4.58       7.78      12.40
O       7.27       4.62       5.93
O       7.22       8.52       0.81
C       5.27       6.90      11.77
C       7.39       6.97       7.13
C       6.73       5.86       6.22
C       6.99       7.02       2.55
C       5.60       7.20      10.40
C       7.08       8.06       6.07
C       6.42       6.90       5.10
C       5.65       8.33       6.73
C       5.99       7.22       7.80
C       5.00       7.21       5.79
C       5.32       6.12       6.88
C       6.71       6.88       3.74
C       5.77       7.27       9.19
