12

O      -7.32       8.50      24.70
O      -5.07       8.37      25.06
C      -5.96       7.69      23.04
C      -5.90       7.45      21.83
C      -5.80       7.26      20.51
C      -5.70       7.16      19.29
C      -5.57       7.05      17.96
C      -5.45       6.93      16.74
C      -6.14       8.21      24.36
C      -5.26       6.52      15.38
O      -6.34       6.28      14.71
O      -4.08       6.37      14.98
