52

C      -8.92       2.19      16.62
C      -8.73       1.78      15.28
C      -7.59       2.21      14.58
C      -6.58       2.92      15.28
C      -6.74       3.27      16.65
C      -7.94       2.97      17.30
C      -5.39       3.29      14.60
C      -4.37       3.62      14.01
C      -3.18       3.99      13.33
C      -3.00       3.61      11.97
C      -1.79       3.91      11.32
C      -0.82       4.73      11.98
C      -1.05       5.18      13.31
C      -2.19       4.74      14.01
H      -4.65       3.65      16.94
C      -9.69       0.85      14.57
H     -10.51       1.41      14.07
C      -5.61       3.95      17.37
C      -7.42       1.93      13.12
H      -9.22       3.74      18.88
C      -8.16       3.52      18.69
H      -5.68       5.05      17.29
C      -4.11       2.88      11.27
C      -0.14       6.15      14.03
H     -10.17       0.15      15.25
H      -9.17       0.27      13.80
H      -7.85       2.80      19.47
H      -5.60       3.70      18.44
C      -2.39       5.06      15.47
H      -7.59       4.44      18.83
C      -1.58       3.30       9.95
H      -6.89       0.97      12.93
H      -1.46       4.93      16.04
H      -6.82       2.72      12.65
H      -8.38       1.88      12.60
H      -4.26       3.26      10.25
H       0.83       5.70      14.30
H      -5.05       3.00      11.82
H      -3.92       1.80      11.19
H      -2.35       2.55       9.74
H      -0.60       2.81       9.88
H      -1.59       4.05       9.16
O       1.32       5.79      11.90
O       0.57       4.78      10.03
C       0.44       5.12      11.26
H      -2.74       6.09      15.63
H      -0.61       6.52      14.95
C     -10.17       1.80      17.34
H       0.10       7.02      13.41
H      -3.15       4.40      15.89
O     -11.25       1.71      16.64
O     -10.09       1.59      18.60
