24

O       2.76       1.57      12.45
O       2.71      -0.98      12.04
C       7.20       1.93      10.41
C       8.17       1.34       9.62
H       7.09      -1.87       9.68
H       8.89      -0.51       8.74
H       7.22       3.00      10.58
H       8.96       1.96       9.18
H       2.93       2.56      12.48
H       2.84      -1.94      11.77
C       4.99      -2.50      11.21
C       5.10       3.19      12.14
O       3.84      -3.11      11.25
O       6.10      -3.11      11.24
O       6.21       3.76      12.41
O       3.97       3.82      12.25
C       4.97      -1.02      11.17
C       6.09      -0.24      10.70
C       3.85      -0.37      11.69
C       7.11      -0.81       9.89
C       8.13      -0.04       9.36
C       5.05       1.78      11.69
C       3.88       1.05      11.93
C       6.14       1.17      10.97
