18

C       7.85      14.67       7.05
H       5.23      14.38       7.74
H       2.17      14.67       5.82
N       2.98      14.37       6.36
C       5.36      14.53       6.67
H       7.84      15.00       4.39
O       7.21      15.23       2.09
H       3.58      14.77       3.76
H       2.88      14.62       7.35
C       5.73      14.90       3.92
C       5.99      15.07       2.46
O       5.03      15.06       1.62
C       6.65      14.69       6.15
O       9.01      14.71       6.49
C       4.23      14.56       5.82
O       7.70      14.62       8.31
C       6.84      14.87       4.78
C       4.43      14.74       4.44
