36

O      14.07      -1.15       6.08
O      14.63       0.10       7.80
O      15.98      -6.01       4.07
O      15.09      -7.90       3.38
O      10.37      -4.85       7.75
O       9.13      -5.39       6.02
C      15.99      -6.76       6.91
C      11.86      -2.63       6.91
O      15.24      -6.75       9.76
O      17.13      -5.86      10.44
C      14.65      -2.21       8.05
C      13.84      -6.50       4.75
F      10.30      -6.86       4.24
F      16.65      -3.29      10.84
C      11.44      -5.42       5.78
C      15.73      -4.61       9.08
F      16.09      -1.07       9.58
F      12.52      -7.42       2.99
C      15.55      -2.18       9.09
C      12.63      -6.75       4.14
C      11.41      -6.32       4.74
C      15.98      -3.40       9.69
C      14.95      -4.65       7.86
C      12.72      -4.92       6.25
C      13.88      -5.73       5.97
C      14.15      -3.49       7.58
C      14.93      -5.70       6.91
C      12.93      -3.70       6.91
N      14.41      -0.99       7.26
N      15.07      -6.84       4.02
N      10.22      -5.18       6.57
N      16.07      -5.84       9.81
O      17.08      -6.49       7.52
O      11.01      -2.68       5.97
O      15.72      -7.85       6.31
O      11.90      -1.78       7.85
