27

H      19.14      14.03       3.93
H      19.82       9.84       3.28
C      18.03      11.59       4.28
H      21.26      14.57       2.71
C      19.34      11.91       3.65
H      21.95      10.38       2.04
H      24.76      13.03      -0.12
C      19.76      13.24       3.52
C      20.15      10.87       3.14
H      20.49      12.46       0.13
C      20.94      13.54       2.85
H      24.61      12.92      -2.62
C      21.32      11.17       2.46
H      20.35      12.35      -2.35
C      21.68      12.51       2.29
C      22.64      12.75       0.14
C      23.80      12.89      -0.62
C      21.39      12.56      -0.47
O      17.73      10.36       4.40
C      23.71      12.83      -2.01
O      17.31      12.58       4.63
O      22.80      12.82       1.52
C      21.32      12.50      -1.86
C      22.47      12.63      -2.64
O      21.25      12.58      -4.70
C      22.37      12.60      -4.12
O      23.48      12.63      -4.81
