30

C      15.47       4.14      21.58
C      14.49       5.16      21.53
C      14.72       9.59      14.72
H      16.53       7.63      15.16
C      14.80       8.68      15.89
C      13.61       5.28      22.62
C      15.81       7.71      15.98
C      13.70       4.44      23.72
H      16.69       6.14      17.16
C      15.89       6.88      17.09
C      14.33       6.06      20.40
H      13.22       8.08      18.84
C      14.97       6.99      18.15
H      13.09       9.55      16.87
C      13.95       7.97      18.05
H      15.94       5.39      19.20
C      13.87       8.79      16.94
C      15.11       6.09      19.29
H      16.31       2.51      22.71
O      15.52       9.38      13.75
H      16.17       4.02      20.75
O      13.85      10.53      14.79
H      12.84       6.06      22.60
H      13.01       4.54      24.57
O      15.65       1.58      24.83
C      14.77       2.50      24.91
H      13.51       6.77      20.49
O      13.97       2.69      25.90
C      14.67       3.43      23.76
C      15.56       3.30      22.67
