40

H       0.93      14.56       2.53
H       0.86      12.46       1.24
H       3.15      10.52       4.33
H       3.15      11.97       0.40
H       0.93       8.39      -2.20
H       0.86       8.32       0.27
H       3.15       7.85       1.11
H       0.93       7.38       5.51
H       0.86       9.55       4.33
C       2.15      10.20      -3.80
C       2.15       5.09       4.74
C       2.15      15.04       4.90
C       1.43      13.67       2.91
C       1.38      12.49       2.19
C       2.01      11.33       2.68
C       2.67      11.39       3.91
C       2.68      12.58       4.64
C       2.09      13.74       4.15
C       2.67      11.17      -0.15
C       2.68      11.21      -1.54
C       2.09      10.20      -2.30
C       1.43       9.17      -1.62
C       1.38       9.14      -0.23
C       2.01      10.14       0.53
C       2.67       7.77       2.07
C       2.68       6.54       2.74
C       2.09       6.39       3.99
C       1.43       7.49       4.55
C       1.38       8.71       3.88
C       2.01       8.87       2.63
N       1.98      10.11       1.95
Cl       3.44      12.58       6.20
Cl       3.44      12.55      -2.32
Cl       3.44       5.20       1.96
O       3.14      15.80       4.65
O       3.14       9.61      -4.33
O       3.14       4.93       5.52
O       1.20      15.29       5.71
O       1.20       4.26       4.55
O       1.20      10.78      -4.42
