31

C      14.84       2.80      25.23
H      12.30       1.99      16.99
H      16.18       4.21      23.38
H      13.06       1.70      19.36
C      12.65       6.43      21.37
H      12.60       1.91      23.99
H      12.62       6.25      17.46
H      11.90       2.40      21.64
N      13.17       6.28      20.01
Cl      16.02       4.81      20.63
O      14.49       1.71      25.78
O      15.58       3.71      25.77
H      12.96       7.09      19.45
H      12.64       7.51      21.60
H      13.27       5.93      22.12
H      11.61       6.05      21.46
O      12.22       5.57      15.23
O      11.32       3.49      15.10
C      12.45       4.15      17.09
C      12.53       2.85      17.62
C      12.93       2.70      18.94
C      13.20       3.80      19.78
C      13.03       5.12      19.26
C      11.99       4.42      15.71
C      12.72       5.25      17.90
C      14.89       4.00      21.66
C      15.24       3.81      23.00
C      13.22       2.51      23.33
C      12.85       2.77      22.02
C      13.66       3.54      21.16
C      14.41       3.06      23.84
