56

C       3.80      -9.94      17.80
C       3.63      -9.86      19.32
C       2.41     -10.61      19.85
C      -1.68     -11.74      12.77
C      -1.05     -12.80      12.12
C      -1.78     -13.63      11.23
C      -3.16     -13.33      11.00
C      -3.75     -12.24      11.66
C      -3.03     -11.45      12.53
C      -4.04     -14.11      10.12
N       0.62      -9.61      14.69
N       1.53      -7.39      14.94
N       0.78      -5.21      14.48
N      -1.03     -10.95      13.74
O      -5.22     -13.71       9.86
O      -3.59     -15.21       9.62
O      -1.15     -14.68      10.67
O       5.48      -2.30      17.77
O       3.86      -0.78      17.99
O       1.40      -1.26      17.01
O       0.91     -10.47      12.58
O       0.13      -6.97      13.17
H       0.04      -9.58      15.52
H       2.09      -8.84      13.55
H       1.95      -7.00      15.78
H       0.01      -4.72      14.04
H       0.12      -2.97      15.65
H       4.85      -4.21      16.40
H       3.44      -5.69      15.02
H       3.85      -8.71      15.27
H       3.12     -10.34      15.18
H       1.72      -9.81      17.21
H       2.54      -8.25      17.37
H       4.75      -9.47      17.52
H       3.88     -11.00      17.49
H       3.57      -8.80      19.62
H       4.54     -10.26      19.80
H       1.47     -10.19      19.47
H       2.36     -10.57      20.95
H       2.43     -11.67      19.56
H      -1.67     -10.46      14.36
H      -0.00     -13.03      12.29
H      -4.79     -12.01      11.45
H      -3.51     -10.59      12.99
C       0.21     -10.35      13.58
C       1.80      -8.78      14.61
C       0.79      -6.57      14.13
C       1.65      -4.45      15.26
C       1.17      -3.25      15.79
C       1.97      -2.38      16.54
C       3.34      -2.74      16.77
C       3.81      -3.96      16.23
C       3.01      -4.81      15.48
C       4.28      -1.92      17.55
C       2.94      -9.30      15.50
C       2.67      -9.28      17.00
