22

C       5.97       5.93      33.54
C       4.32       6.55      36.82
C       3.78       5.85      37.88
C       5.45       3.78      34.54
C       5.99       4.52      33.52
C       4.89       4.47      35.67
C       4.37       3.79      36.79
C       3.80       4.45      37.86
C       5.36       8.14      34.45
O       6.49       8.75      34.42
C       5.43       2.28      34.38
O       4.21       8.66      34.34
O       4.30       1.73      34.21
O       6.57       1.69      34.38
F       6.50       3.92      32.42
F       6.47       6.58      32.46
F       4.46       2.44      36.88
F       3.31       3.76      38.91
F       3.26       6.49      38.94
F       4.34       7.89      36.93
C       5.42       6.64      34.58
C       4.87       5.91      35.68
