36

H       7.86       8.35       8.96
H       6.24       7.98       9.61
H       7.84      10.57       9.96
H       6.12      10.46      10.34
H       6.54       8.67      12.03
H       7.52      10.10      12.40
H       8.28       8.69      11.66
H       2.47      13.13      10.63
H       2.05      11.52      11.29
H       0.04      13.59      10.26
H      -0.37      12.01      10.96
H       0.66      12.72      13.17
H      -0.62      13.84      12.68
H       1.09      14.29      12.46
C       3.98       7.57       8.24
C       3.68      13.38       8.11
C       4.97      11.21       7.86
C       2.82       9.75       8.91
C       3.79      11.88       8.21
C       3.97       9.05       8.47
C       5.10       9.83       8.10
C       2.74      11.15       8.81
C       6.89       8.78       9.24
C       7.05       9.88      10.28
C       7.37       9.30      11.66
C       1.72      12.32      10.61
C       0.36      12.84      11.01
C       0.37      13.46      12.41
I       6.63      12.12       6.93
I       1.19       8.85       9.92
O       2.87       6.95       8.35
O       4.69      14.03       8.51
O       5.07       7.02       7.89
O       2.60      13.88       7.67
O       6.35       9.29       7.98
O       1.62      11.79       9.27
