46

N      -2.30      -0.98       9.21
N      -3.44      -1.73       9.07
H      -5.49      -1.44       9.50
N      -9.90      10.51       9.96
N     -10.96       9.98       9.37
Cl      -1.48       1.37      10.11
H      -3.72       2.84       9.44
O      -7.23       9.04      11.84
H      -6.30       0.14      11.58
O     -13.05       8.17       8.52
H      -9.34       6.42       8.51
O      -5.44       6.11      10.38
O      -4.30       5.06       8.73
H      -7.71       5.00      12.97
O     -11.92       6.48       9.47
O      -7.99       2.82       8.43
O      -8.35       4.71       7.25
H      -7.92       1.98      11.93
H      -9.03       7.08      12.75
H      -6.54       9.49      12.38
H     -12.74       6.04       9.14
H      -4.07       6.00       8.57
H      -8.30       4.03       6.54
C      -2.67       0.19       9.75
C      -4.49      -1.03       9.55
C      -4.06       0.23       9.99
C      -9.18       9.52      10.57
C     -10.93       8.62       9.58
C      -9.78       8.27      10.33
C      -5.51       3.70      10.25
C      -4.62       2.64      10.01
C      -4.91       1.34      10.43
C      -6.08       1.13      11.19
C      -6.98       2.18      11.42
C      -6.74       3.46      10.91
C      -8.31       4.90       9.62
C      -9.00       6.11       9.49
C      -9.22       6.93      10.60
C      -8.82       6.48      11.87
C      -8.10       5.29      11.99
C      -7.77       4.53      10.87
C      -8.07       9.98      11.39
C     -12.04       7.78       9.14
C      -5.12       5.07       9.83
C      -8.18       4.02       8.42
O      -7.91      11.19      11.68
