28

H       6.41       6.31       3.31
H      10.44       5.58      -3.47
H       6.33       4.32      -3.37
H       6.40       4.34      -0.87
H      10.22       4.34       3.52
H      10.27       4.16       1.03
H       5.60       6.66       1.18
H      11.42       5.96      -1.42
C       8.26       5.35       5.05
C       8.35       5.05      -5.05
C       8.31       5.33       3.56
C       8.38       4.97      -3.56
C       7.27       5.85       2.80
C       7.32       5.81       1.40
C       9.55       5.32      -2.89
C       9.57       5.40      -1.49
C       7.23       4.62      -2.83
C       7.27       4.65      -1.45
C       9.41       4.74       2.91
C       9.44       4.66       1.53
C       8.40       5.18       0.74
C       8.41       5.07      -0.74
O       7.12       5.51       5.60
O       7.20       5.12      -5.60
O       9.47       5.10      -5.65
O       9.37       5.17       5.65
O       6.36       6.41       0.63
O      10.67       5.82      -0.81
