22

C       3.30      -3.39      15.18
C       6.65      -9.96      18.76
N       2.89      -3.97      14.04
N       7.07      -9.37      19.90
N       5.05      -6.04      16.96
N       4.90      -7.30      16.98
H       4.08      -7.09      14.56
H       5.87      -6.26      19.38
H       2.84      -5.70      12.89
H       7.11      -7.65      21.05
H       4.42      -3.55      17.03
H       5.54      -9.79      16.91
H       2.98      -2.36      15.33
H       6.97     -10.99      18.61
C       3.88      -6.03      14.76
C       6.07      -7.31      19.18
C       4.33      -5.41      15.93
C       5.62      -7.94      18.01
C       3.19      -5.27      13.83
C       6.77      -8.07      20.11
C       4.06      -4.05      16.13
C       5.89      -9.30      17.81
