28

C       4.64       4.62      10.07
C       7.47       4.42      15.79
H       7.09       4.59      10.37
C       2.18       4.82      11.52
Cl       2.09       4.66      14.60
Cl      10.03       4.31      14.18
Cl       9.79       4.51      11.10
O       4.58       3.47       9.52
H       8.52       4.45      16.07
H       7.03       3.51      16.23
O       4.65       5.75       9.50
H       6.99       5.29      16.26
H       2.05       3.99      10.82
H       1.33       4.84      12.20
H       2.18       5.75      10.92
O       4.62       3.39      16.43
O       4.51       5.66      16.42
C       7.31       4.44      14.30
C       8.45       4.41      13.49
C       8.36       4.48      12.07
C       7.13       4.53      11.46
C       5.94       4.54      12.23
C       4.64       4.53      15.87
C       6.01       4.50      13.66
C       4.76       4.54      14.37
C       3.56       4.63      13.67
C       3.48       4.68      12.26
C       4.68       4.62      11.58
