32

C       3.49       4.58      29.79
C       3.76       4.42      31.14
H       5.25       7.42      31.79
C       3.09       6.20      25.18
H       3.52       3.49      31.65
N       3.62       7.26      25.83
H       3.18       8.48      21.12
N       3.85       7.13      27.12
H       4.75       7.73      29.36
H       3.01       3.79      29.22
N       2.93       4.93      27.07
N       2.70       5.05      25.79
H       3.62       8.34      23.57
Cl       1.47       3.88      20.91
H       2.09       4.31      23.56
O       5.47       6.11      33.87
C       4.80       5.20      33.27
C       3.54       5.95      27.71
O       4.51       4.06      33.78
O       2.47       7.87      19.03
C       3.20       7.49      23.03
O       1.32       5.93      18.88
C       2.95       7.57      21.67
C       2.10       5.31      21.65
C       2.33       5.23      23.03
C       2.87       6.31      23.73
C       2.39       6.50      20.95
C       2.06       6.78      19.51
C       4.39       5.44      31.87
C       4.75       6.64      31.22
C       4.47       6.81      29.87
C       3.84       5.78      29.14
