23

C       4.83       9.48      19.22
C       3.74       9.98      18.33
C       3.54      11.35      18.10
O       5.62      10.38      19.73
H       4.23      12.06      18.55
C       0.40      11.32      15.98
C      -1.83      10.98      15.13
O       4.93       8.25      19.46
H      -2.76      10.42      15.06
C      -0.78      10.57      15.93
H      -0.90       9.66      16.52
C       1.56      10.87      16.77
H       2.32      12.86      17.17
C       2.47      11.79      17.32
H       1.10       8.77      16.54
C       1.77       9.50      16.99
H      -0.62      13.71      13.77
H       3.04       8.00      17.90
C      -0.64      12.83      14.42
C       2.86       9.06      17.74
H       1.35      13.11      15.15
C       0.45      12.49      15.21
N      -1.76      12.10      14.37
