13

C       1.22       9.72      14.21
C       2.48       9.42      13.41
C       2.64       7.27      10.42
C       3.00       8.51      11.22
H       2.92      10.36      13.05
H       3.20       8.89      14.06
O       0.17       9.08      13.95
O       1.38      10.61      15.11
H       4.04       8.42      11.58
H       2.91       9.39      10.57
O       1.56       6.68      10.68
O       3.49       6.96       9.52
O       2.10       8.59      12.32
