40

H       8.81       7.05       5.80
H      10.99       9.85      -5.42
C       8.93       9.42      -7.10
C       9.92       9.00       7.29
C      10.25      10.02       4.99
C       7.68       9.17      -4.89
C      10.04       9.99       3.62
C       7.71       9.08      -3.49
C       9.39       8.93       2.99
C       8.90       9.24      -2.77
C       8.98       7.87       3.81
C      10.05       9.52      -3.51
C       9.17       7.87       5.19
C      10.06       9.64      -4.90
C       9.81       8.96       5.79
C       8.86       9.46      -5.59
C       9.81       8.01       0.69
C       8.30      10.03      -0.46
C       9.70       8.10      -0.69
C       8.42       9.95       0.92
C       8.95       9.12      -1.30
C       9.19       8.95       1.53
N      11.01      11.18       5.52
N       6.43       8.97      -5.63
O       8.97       8.25      -7.57
O      10.22      10.13       7.79
O       9.02      10.52      -7.72
O       9.67       7.93       7.93
O      12.21      10.98       5.75
O      10.41      12.25       5.62
O       6.32       9.57      -6.71
O       5.57       8.22      -5.14
F      10.57       7.03       1.23
F       7.58      11.03      -1.00
F      10.33       7.19      -1.46
F       7.80      10.87       1.69
F      10.50      11.01       2.87
F       6.59       8.85      -2.78
F       8.34       6.83       3.24
F      11.22       9.69      -2.85
