84

H       8.33      16.22       0.68
H       4.83      13.31       0.06
H       3.88      13.64      10.35
H       5.08      14.57       8.40
H       2.04      13.03       5.77
H       0.85      12.06       7.73
H       6.29      13.65       6.57
H       9.78      14.53       3.38
O       8.86      15.68       1.30
O       5.26      13.84       0.75
H       9.07      11.85       4.37
H      10.10      10.49       6.20
H       9.46      13.71       8.96
H       8.45      15.09       7.14
H       3.99      14.84      -1.33
H       5.04      19.49      -1.82
O      11.13      10.20       8.61
O      10.15      11.62      10.02
H       7.51      20.40       1.59
H       7.36      18.06       2.33
H       3.29      16.19      -5.65
H       4.80      15.81      -3.71
H       4.24      21.49      -1.30
H       4.28      23.81      -2.15
H       8.30      24.30      -0.69
H       8.30      21.95       0.11
H       2.67      18.78      -1.43
H       4.03      15.94       2.78
H       1.19      19.19      -3.39
H       2.73      15.20       4.73
O       1.96      12.54      11.51
O       0.63      11.38      10.10
O       1.26      17.11      -6.77
O       0.15      18.64      -5.61
O       5.33      25.80      -2.91
O       7.29      26.34      -1.89
C       1.57      12.20      10.32
C       2.28      12.79       9.16
C       3.48      13.51       9.34
C       4.15      14.02       8.25
C       3.65      13.86       6.94
C       2.43      13.18       6.77
C       1.77      12.63       7.86
C       4.43      14.36       5.79
C       5.80      14.17       5.75
C       6.58      14.58       4.64
C       7.99      14.31       4.56
C       8.70      14.71       3.45
C       8.06      15.35       2.37
C       6.69      15.57       2.37
C       5.93      15.21       3.53
C       4.53      15.43       3.61
C       3.80      15.01       4.70
C       8.67      13.55       5.64
C       9.16      12.26       5.38
C       9.73      11.49       6.39
C       9.80      12.00       7.70
C       9.35      13.31       7.95
C       8.80      14.07       6.94
C       6.01      16.05       1.14
C       5.29      15.15       0.36
C       4.60      15.57      -0.80
C       4.63      16.88      -1.23
C       5.39      17.84      -0.48
C       5.52      19.19      -0.89
C       6.25      20.12      -0.16
C       6.93      19.68       1.01
C      10.38      11.20       8.81
C       6.84      18.38       1.42
C       6.08      17.41       0.71
C       3.83      17.24      -2.43
C       2.83      18.23      -2.36
C       2.00      18.46      -3.46
C       2.15      17.72      -4.64
C       3.17      16.76      -4.73
C       4.00      16.54      -3.63
C       1.17      17.85      -5.73
C       5.15      22.09      -1.20
C       6.29      21.53      -0.58
C       5.16      23.39      -1.66
C       6.30      24.20      -1.49
C       7.42      23.67      -0.83
C       7.41      22.35      -0.38
C       6.32      25.54      -2.12
