18

C       4.81       4.71       4.65
N       7.14       3.81       2.19
C       3.84       6.51       2.77
O       4.17       5.25       7.30
H       5.35       5.73       1.43
C       3.30       7.46       1.74
C       3.79       5.59       5.00
N       7.95       3.69       1.39
H       2.44       7.13       4.29
C       4.91       5.67       2.43
O       2.18       8.02       2.00
C       3.29       5.52       6.40
C       5.37       4.74       3.37
N       6.38       3.78       3.16
O       3.99       7.63       0.68
C       3.27       6.47       4.04
H       5.20       3.99       5.37
O       2.05       5.70       6.62
