26

H       3.83       4.29      15.65
H       2.73       6.62      16.84
H       3.97       8.23      14.85
H       6.27       8.46      16.52
H       7.37       6.13      15.32
C       5.00       6.02      10.64
C       5.10       7.46      21.41
C       5.63       5.37      16.69
C       4.36       5.24      15.82
C       5.02       5.92      12.09
C       5.07       7.22      19.98
C       6.34       6.27      15.64
C       5.06       6.13      14.71
C       5.72       7.55      16.29
C       5.02       6.67      17.41
C       4.44       7.42      15.41
C       3.75       6.52      16.48
C       5.05       5.95      13.31
C       5.05       6.94      18.80
N       6.26       4.30      17.47
O       6.13       6.10      10.06
O       3.85       6.04      10.09
O       6.26       7.49      21.95
O       3.98       7.60      21.99
O       7.47       4.41      17.70
O       5.51       3.40      17.89
