36

C      11.12       1.63      15.85
C      11.12      -1.63      24.98
H       9.99       3.47      16.02
H       9.99      -3.47      24.81
C      11.23       0.27      16.23
C      11.23      -0.27      24.61
H      11.86       2.06      15.18
H      11.86      -2.06      25.65
C      10.27      -0.27      17.05
C      10.27       0.27      23.78
H      12.05      -0.34      15.86
H      12.05       0.34      24.97
C       9.19       0.51      17.54
C       9.19      -0.51      23.29
H      10.32      -1.32      17.36
H      10.32       1.32      23.47
C       8.23      -0.14      18.37
C       8.23       0.14      22.46
H       8.35      -1.20      18.59
H       8.35       1.20      22.24
C       6.16      -0.20      19.68
C       6.16       0.20      21.16
H       5.19       0.10      19.25
H       5.19      -0.10      21.58
N       7.20       0.47      18.90
N       7.20      -0.47      21.93
H       6.27      -1.28      19.56
H       6.27       1.28      21.27
H       7.11       1.47      18.68
H       7.11      -1.47      22.15
O       8.12       2.65      17.65
O       8.12      -2.65      23.19
C       9.09       1.90      17.18
C       9.09      -1.90      23.65
C      10.07       2.42      16.30
C      10.07      -2.42      24.53
