33

C       0.59       7.75       5.44
O      -3.67       5.62       4.84
H      -0.52       6.80       7.04
C       0.64       8.10       4.07
O      -2.94       5.89       6.95
C      -0.43       7.68       3.25
H       1.42       8.03       6.09
H      -0.43       7.96       2.20
C      -1.50       6.97       3.78
C       1.73       8.92       3.51
H      -2.34       6.69       3.16
C       2.39       9.88       4.30
H       2.10      10.03       5.34
C       3.38      10.70       3.77
H       3.82      11.47       4.40
C       3.76      10.58       2.42
H       3.40       9.47       0.59
H       1.66       8.06       1.52
C       3.10       9.62       1.63
C       2.10       8.81       2.16
H       4.07      11.51      -0.18
C       4.85      11.39       1.85
H       6.03      12.77      -1.04
C       4.89      11.76       0.50
H       7.88      12.76       2.65
C       5.98      12.46       0.00
H       5.97      11.54       3.70
N       7.04      12.80       0.77
C       7.00      12.48       2.08
C      -2.79       6.00       5.66
C      -1.55       6.66       5.15
C       5.94      11.80       2.65
C      -0.49       7.05       5.97
