38

H       1.82      17.10      14.50
O       1.99      19.15      16.13
H      -1.82      11.59      11.30
O      -1.99       9.53       9.67
H      -2.28      16.14      15.43
H       2.28      12.54      10.37
H      -2.32      18.06      17.03
H       2.32      10.63       8.77
H      -0.56      12.01      13.48
H       0.56      16.68      12.32
H       2.69      18.85      15.52
H      -2.69       9.83      10.28
C       0.40       8.96       8.09
C      -0.39      19.73      17.71
C       0.88      18.38      15.96
C      -0.88      10.31       9.84
C       0.90      17.31      15.05
C      -0.90      11.38      10.75
C      -0.22      16.49      14.86
C       0.22      12.20      10.94
C      -1.40      16.77      15.57
C       1.40      11.92      10.23
C      -1.42      17.84      16.46
C       1.42      10.85       9.34
C      -0.30      18.65      16.69
C       0.30      10.04       9.11
C      -0.46      14.04      14.17
C       0.46      14.65      11.62
C      -0.33      13.04      13.21
C       0.33      15.65      12.59
C       0.13      13.31      11.91
C      -0.13      15.37      13.88
Br      -1.00      13.49      15.92
Br       1.00      15.19       9.88
O      -0.69       8.53       7.59
O       0.69      20.16      18.20
O       1.57       8.57       7.75
O      -1.56      20.12      18.05
