28

H       9.73       9.15      24.39
H       5.46       9.05      24.63
H       6.40       9.14      19.90
H      10.67       9.03      19.65
H      11.42       9.95      22.93
H      11.40       8.18      22.94
H      12.05       9.05      21.53
H       4.71       9.95      21.35
H       4.74       8.18      21.34
H       4.09       9.05      22.75
C       8.43       9.10      18.16
C       7.70       9.12      26.12
C      11.26       9.07      22.30
C       4.87       9.07      21.99
O       9.50       8.80      17.53
O       7.30       9.38      17.63
C       8.78       9.13      23.87
C       6.35       9.08      24.00
C       6.23       9.09      22.63
C       7.42       9.11      21.83
C       7.36       9.12      20.41
C       9.78       9.07      20.29
C       9.90       9.08      21.66
C       8.71       9.11      22.46
C       7.62       9.11      24.63
C       8.51       9.10      19.65
O       6.64       8.82      26.76
O       8.83       9.42      26.65
