16

C      -3.14       9.77       4.10
C      -1.77      10.37       4.00
C      -1.60      11.75       4.20
C      -0.31      12.29       4.23
C       0.80      11.45       4.08
O      -3.25       8.51       3.99
O      -4.11      10.57       4.32
C       2.18      12.02       4.25
C       0.62      10.08       3.83
O       2.28      13.23       4.58
C      -0.66       9.55       3.79
O       3.17      11.25       4.05
H      -2.48      12.38       4.35
H      -0.15      13.36       4.40
H       1.50       9.45       3.71
H      -0.82       8.48       3.64
