26

H      10.37       1.84       0.38
H       8.31       0.01       3.65
H       6.37      -2.05      -0.31
H       8.25      -0.04      -3.58
H      10.11       2.27      -1.52
H       9.73       1.77      -3.09
H       5.94      -1.78       1.60
H       6.47      -1.43       3.17
C      10.21       1.80       3.02
C       6.41      -1.90      -2.95
C       9.59       1.14       0.70
C       8.44       0.09       2.57
C       7.66      -0.67       1.70
C       7.84      -0.54       0.28
C       7.09      -1.30      -0.63
C       8.17      -0.17      -2.50
C       8.94       0.59      -1.63
C       8.81       0.41      -0.21
C       9.41       0.98       2.07
C       7.25      -1.11      -2.00
N       9.87       1.50      -2.13
N       6.73      -1.58       2.20
O      11.04       2.64       2.54
O       5.56      -2.72      -2.47
O       9.97       1.62       4.26
O       6.60      -1.67      -4.19
