16

C      15.06      15.56      10.28
O      19.39      19.11      13.65
O      15.53      15.04       9.22
O      13.83      15.60      10.61
Br      16.38      16.58      15.37
O      19.16      17.37      15.07
Br      14.64      14.77      13.32
Br      17.20      17.46       8.92
Br      19.66      18.23      10.90
C      17.91      17.35      13.04
C      16.05      16.19      11.24
C      16.79      16.63      13.52
C      18.89      17.99      13.99
C      15.92      15.98      12.63
C      18.09      17.48      11.64
C      17.11      16.98      10.75
