28

F       4.06      11.91      10.03
F       3.04       9.65      14.16
C       3.55       9.33      11.30
C       3.55      20.54      17.42
C       3.55      19.22      16.70
C       3.30      18.01      17.37
C       3.30      16.79      16.71
C       3.55      16.70      15.32
C       3.81      17.91      14.65
C       3.81      19.13      15.31
C       3.55      15.47      14.65
C       3.55      14.40      14.07
C       3.55      13.17      13.40
C       3.30      11.96      14.07
C       3.30      10.74      13.41
C       3.55      10.65      12.02
C       3.81      11.86      11.35
C       3.81      13.08      12.02
O       3.32       8.29      12.00
O       3.79       9.36      10.05
O       3.32      20.51      18.67
O       3.79      21.57      16.72
F       3.04      17.96      18.69
F       4.06      20.21      14.56
F       4.06      17.88      13.33
F       3.05      15.66      17.40
F       3.05      11.99      15.40
F       4.05      14.21      11.32
