26

O       8.11      18.50      14.68
O       1.30       9.27      16.57
O       6.94      19.12      16.52
O       2.49       8.64      14.74
H       3.19      13.67      17.45
H       6.32      14.04      13.89
H       4.05      10.27      13.95
H       5.41      17.47      17.34
H       4.18      15.35      17.43
H       5.34      12.36      13.91
F       7.66      16.13      13.63
F       1.80      11.61      17.65
C       7.24      18.30      15.59
C       2.17       9.47      15.66
C       6.54      16.99      15.59
C       2.90      10.77      15.69
C       6.76      15.97      14.64
C       6.08      14.76      14.67
C       2.70      11.77      16.66
C       3.42      12.96      16.66
C       3.88      11.04      14.71
C       4.60      12.22      14.70
C       5.59      16.70      16.59
C       4.90      15.50      16.63
C       5.13      14.50      15.66
C       4.38      13.22      15.67
