68

H       1.86       6.18      13.63
H       1.78       6.97      15.63
H       1.80       7.83      17.94
H       4.31      10.37      19.95
H       5.59      10.99      22.00
H       2.13      11.01      14.16
H       4.65      14.87      23.46
H       6.40      10.07      24.34
H       4.66       9.70      24.15
H       6.41       8.77      26.50
H       4.70       8.39      26.28
H       5.26       7.15      24.13
H       6.14       6.47      25.51
H       6.98       7.53      24.36
H       3.80      10.41      10.07
H       5.08      10.00      11.26
H       4.37      11.66      11.21
H      -0.25      10.97      20.99
H      -0.34      12.18      19.68
H      -1.30      12.41      21.19
H       1.17      12.97      14.83
H       2.96      12.95      14.98
H       1.99      14.06      16.00
H       1.67      13.42      25.63
H       2.51      11.94      25.11
H      -0.42      12.63      24.55
H       0.41      11.19      23.95
H       0.83      10.42      26.32
H      -0.91      10.67      26.05
H       0.03      11.88      26.94
C       5.17      12.18      25.24
C       2.30       8.38      13.40
C       3.97      12.13      22.86
C       2.64      12.56      22.68
C       1.93      12.27      21.49
C       2.55      11.47      20.50
C       3.85      10.96      20.74
C       4.56      11.30      21.88
C       1.82       8.52      17.10
C       1.83       8.05      15.80
C       1.91       9.89      17.40
C       2.01       8.94      14.72
C       2.02      10.32      14.99
C       1.92      10.81      16.30
C       4.89      14.08      24.16
C       4.71      12.70      24.00
C       5.47       9.82      24.89
C       5.64       8.58      25.74
C       6.02       7.37      24.89
C       4.17      10.59      11.09
C       2.25       7.02      13.06
C      -0.36      12.04      20.76
C       2.02      13.07      15.53
C       1.70      12.64      24.86
C       2.91       8.95      12.25
C       0.37      11.91      24.78
C       0.06      11.18      26.09
N       5.60      13.17      26.05
N       1.95      11.30      19.24
N       2.17      10.15      18.74
N       5.40      14.35      25.37
N       2.82       6.79      11.86
N       3.23       8.01      11.35
O       5.14      10.93      25.77
O       3.17      10.27      12.08
O       0.68      12.80      21.40
O       1.92      12.13      16.60
O       2.02      13.34      23.63
