23

H       9.79       7.18       7.92
C       8.82       6.72       8.10
H       8.52       7.66      10.00
C       8.11       6.97       9.27
H       5.42       5.03       8.51
C       6.87       6.34       9.48
C       6.39       5.52       8.44
H       6.78       4.71       6.49
C       7.16       5.33       7.30
H       7.87       6.89      11.95
H       6.63       6.88      14.10
C       6.12       6.49      10.74
C       6.79       6.74      11.95
H       2.95       6.20      12.00
H       4.18       6.15       9.84
C       6.10       6.74      13.16
N       8.37       5.89       7.14
C       4.72       6.52      13.18
C       4.03       6.34      11.97
C       4.72       6.32      10.77
O       4.69       6.35      15.57
C       3.99       6.38      14.47
O       2.73       6.24      14.51
