36

N      -0.76      -0.37      19.43
N       2.74       1.12      22.71
N       2.91       2.72      24.47
N       0.85       2.42      23.32
N       7.64       1.03      23.67
N      -0.47       5.47      27.04
C       0.53      -0.70      19.66
C       1.28      -0.11      20.66
C       0.67       0.84      21.49
C      -0.68       1.15      21.28
C      -1.35       0.54      20.22
C       1.45       1.49      22.57
C       3.43       1.81      23.63
H       0.97      -1.44      19.00
H       2.33      -0.36      20.79
H      -1.20       1.86      21.92
H      -2.40       0.76      20.01
C       1.60       2.96      24.29
C       0.91       3.87      25.23
C       4.89       1.53      23.68
C       5.44       0.57      22.84
H       4.80       0.01      22.16
C       6.81       0.35      22.86
C       5.76       2.24      24.53
H       5.36       3.00      25.21
C       7.12       1.97      24.49
H       7.29      -0.37      22.19
H       7.84       2.51      25.11
H      -1.02       3.68      24.25
C       1.58       4.47      26.30
C       0.85       5.24      27.19
H       2.65       4.33      26.44
C      -1.11       4.94      25.99
H       1.34       5.70      28.05
C      -0.46       4.13      25.07
H      -2.18       5.16      25.91
