14

C      -0.01       4.48       2.51
C      -1.86       7.90      -2.57
O       1.14       4.21       2.99
O      -3.01       8.22      -3.02
C      -1.87       6.98      -1.41
C       0.00       5.24       1.25
H       0.98       5.64       0.98
C      -1.01       5.49       0.38
C      -0.84       6.32      -0.83
H      -2.85       6.83      -0.98
Br      -2.77       4.81       0.66
Br       0.94       6.42      -1.50
O      -0.74       8.30      -3.03
O      -1.13       4.16       3.03
