16

C      18.51       2.43      10.12
O      19.58      -4.25      14.59
O      17.30      -4.33      14.60
C      17.33      -1.90      12.92
Br      15.50      -2.33      13.05
C      18.40      -2.60      13.46
C      19.59       0.52      11.48
C      19.16      -0.62      12.20
C      17.76      -0.76      12.19
C      18.52       1.21      10.93
Br      21.42       0.94      11.34
O      17.35       2.84       9.74
O      19.63       2.97       9.86
C      18.42      -3.82      14.28
S      19.94      -1.87      13.09
S      16.98       0.48      11.30
