52

O       2.38      24.78       0.39
O       4.37      23.79       0.59
O       2.71      24.67      -2.73
O       0.67      23.84      -2.45
H       1.40      24.52       0.42
O       2.69      18.28       1.32
O       0.63      18.35       0.52
H       3.65      18.47       1.02
O       2.09      17.77      -2.40
O       0.10      18.79      -2.45
H       3.06      18.02      -2.37
O       2.38      16.89      -8.41
O       2.09      23.90      -5.62
O       0.10      22.88      -5.57
C       2.57      20.51     -10.01
O       2.69      23.39      -9.34
O       0.63      23.31      -8.54
C       2.56      21.16       1.99
O       4.37      17.88      -8.61
H       3.06      23.65      -5.65
H       3.65      23.20      -9.04
C       2.52      21.24       0.47
C       2.10      20.07      -0.21
C       1.89      20.06      -1.59
C       2.05      21.26      -2.30
C       2.31      22.46      -1.61
C       2.64      22.44      -0.25
C       2.31      19.21      -6.41
C       2.05      20.41      -5.72
C       1.89      21.61      -6.43
C       2.10      21.60      -7.81
C       2.52      20.43      -8.49
C       2.64      19.23      -7.77
C       3.17      23.73       0.33
C       1.90      23.74      -2.33
C       1.77      18.84       0.58
C       1.31      18.82      -2.23
C       1.90      17.93      -5.69
C       3.17      17.94      -8.35
C       1.31      22.85      -5.79
C       1.77      22.83      -8.60
N       1.99      21.38      -3.70
N       1.99      20.28      -4.32
H       3.69      24.41      -2.64
O       3.59      20.10     -10.63
O       1.51      21.02     -10.51
O       3.59      21.57       2.61
O       1.51      20.65       2.49
H       3.69      17.26      -5.38
O       2.71      17.00      -5.29
H       1.40      17.15      -8.44
O       0.67      17.83      -5.57
