26

H       3.07      15.12       6.77
H      -1.58      18.78       5.97
H       3.34      16.49       4.70
H      -1.41      19.89       3.78
H       2.50      18.20       3.17
H      -0.17      19.74       8.62
C       1.19      15.23       8.60
C       1.27      16.13       7.39
C       0.59      19.16       3.37
C      -0.68      18.65       5.38
C      -0.59      19.28       4.16
C       1.61      18.32       3.79
C       1.49      17.59       4.99
C       0.36      17.81       5.86
C       0.35      17.14       7.12
C       2.34      15.88       6.50
C       2.48      16.63       5.35
C       0.68      19.89       2.07
S      -0.71      17.69       8.47
O       0.04      14.86       8.98
O       2.30      14.87       9.08
O       1.83      20.15       1.61
O      -0.44      20.19       1.54
O      -2.03      17.14       8.36
O       0.05      17.62       9.69
O      -0.89      19.27       8.16
