53

C      10.46       4.51       1.86
H      11.31       9.66      12.50
N      12.73       7.98      14.86
H       8.49       3.63       8.07
N      12.32       9.17      14.30
H       9.45       6.83       6.25
H       8.21       6.07       7.26
H      10.16       3.07       8.28
H      12.04       4.39       9.10
N       9.99       0.95       2.22
N      10.25       2.08       1.51
H       6.95       8.36       9.04
H      12.21       9.27       8.40
O       8.92       8.41      10.18
O       7.54       7.79       8.50
O      10.51       8.80       6.85
O      11.66       8.55       8.79
H       9.64       3.46      12.48
O      12.34       2.80       7.21
O      11.03       3.18      10.66
O       9.25       4.02      11.78
O      12.95       4.11       5.45
H      13.44       3.29       5.22
H      11.62       5.35       0.60
C       9.64       2.75       3.58
C      12.39       7.01      14.03
C      11.72       8.88      13.13
C       9.62       1.35       3.45
O      10.03       5.56       2.30
C      11.74       7.50      12.89
O      11.43       4.44       0.90
F      12.68       5.73      14.34
F       9.32       0.46       4.39
F       8.32       5.29       9.81
F      11.84       6.19       6.35
F      12.97       6.13       8.69
C       9.52       3.96       8.22
C       9.29       6.23       7.15
C       9.83       7.02       8.38
C      11.32       6.86      11.71
C       9.96       4.84       7.02
C       9.59       4.76       9.52
C      10.58       5.99       9.32
C      11.82       5.35       8.60
C      11.51       5.07       7.11
C      10.98       6.50      10.61
C       9.63       4.17       5.77
C       9.55       3.52       4.75
C      10.07       3.16       2.29
C       8.73       7.79       9.15
C      10.72       8.20       7.89
C      12.31       3.86       6.61
C      10.04       3.89      10.71
