62

O       7.65      10.45       8.24
O       9.92      10.32       8.08
O       7.59      22.34       8.51
O       9.87      22.28       8.35
H       7.66      15.15       6.30
H       9.99      15.44       6.37
H      10.85      17.33       8.55
H       7.74      15.17       9.97
H       9.50      15.15      10.20
H       6.71      15.21       7.78
H       6.70      17.46       7.80
H       9.53      17.49      10.17
O       7.69      18.53      11.16
O       6.37      17.16      10.06
H       6.62      19.57       6.67
H       6.42      20.69       4.48
H       7.14      19.51       2.40
H       8.08      17.21       2.56
H       8.31      16.11       4.74
H      11.56      13.88       5.96
H      13.68      12.73       6.52
H      14.75      13.10       8.75
H      13.67      14.62      10.40
H      11.60      15.82       9.81
H      11.36      19.59       7.89
H      12.45      20.96       6.18
H      12.69      20.09       3.83
H      11.80      17.85       3.27
H      10.66      16.50       4.97
C       8.81      10.95       8.14
C       8.71      21.75       8.43
C       7.63      15.58       7.31
C      10.14      15.63       7.44
C      10.21      17.16       7.67
C       8.70      20.31       8.40
C       8.84      15.06       8.11
C       7.60      17.13       7.27
C       8.79      17.67       8.14
C       8.69      17.08       9.60
C       8.69      15.55       9.57
C       8.75      19.11       8.25
C       8.86      13.61       8.10
C       8.87      12.39       8.10
C       7.51      17.76       5.88
C       6.96      19.05       5.77
C       6.84      19.68       4.53
C       7.25      19.03       3.37
C       7.77      17.74       3.46
C       7.90      17.11       4.70
C      11.42      14.93       7.84
C      12.03      14.05       6.94
C      13.22      13.39       7.26
C      13.81      13.59       8.50
C      13.21      14.46       9.42
C      12.03      15.12       9.09
C      10.88      17.95       6.56
C      11.43      19.21       6.87
C      12.06      19.98       5.90
C      12.19      19.50       4.60
C      11.69      18.24       4.28
C      11.04      17.48       5.25
N       7.48      17.63      10.34
