26

H      12.76       3.37      12.44
H      14.51       5.11      12.15
H      13.99       2.11      12.57
H      15.77       3.88      12.03
H      12.62       4.69      10.16
H      13.20       5.27      14.43
N      13.85       2.61       7.82
N      15.27       4.02      16.77
H      12.79       4.39       7.68
H      13.50       5.09      16.91
H      14.90       0.85       8.12
H      17.03       2.96      16.47
H      14.94       1.07      10.61
H      16.81       2.92      13.99
C      13.76       3.07      12.09
C      14.82       4.12      12.51
C      13.76       2.89      10.60
C      14.99       4.12      14.00
C      13.15       3.83       9.75
C      14.06       4.73      14.84
C      13.23       3.66       8.38
C      14.22       4.65      16.22
C      14.43       1.70       8.62
C      16.18       3.44      15.97
C      14.43       1.81      10.00
C      16.06       3.44      14.59
