48

C       0.08      23.94       7.47
H       3.27      19.16       0.20
H       2.42      20.00       2.39
H       5.69      18.02       4.38
H       6.51      17.17       2.20
H       6.22      16.49       9.70
H       5.59      17.79       7.67
H       1.94      19.01       9.61
H       2.59      17.70      11.62
H      -0.70      24.06       8.22
H       0.48      21.89       7.96
H       2.87      23.59       4.80
H       1.68      25.76       5.09
H       4.22      17.83       5.92
H       2.46      20.90       8.36
H       2.71      21.42       4.09
C       5.47      17.67      -0.22
C       4.94      18.13       1.07
C       3.79      18.93       1.13
C       3.32      19.39       2.35
C       4.00      19.07       3.55
C       5.14      18.25       3.47
C       5.61      17.78       2.26
C       4.87      16.31      12.02
C       4.43      17.01      10.77
C       5.27      17.03       9.65
C       4.91      17.75       8.52
C       3.71      18.48       8.48
C       2.88      18.45       9.61
C       3.23      17.72      10.74
C      -0.28      26.35       6.91
C       0.41      25.04       6.66
O       4.74      17.64      -1.28
O       6.68      17.26      -0.33
O       6.05      15.80      11.98
O       4.08      16.27      13.01
O      -1.33      26.26       7.65
C       1.76      22.58       6.36
C       0.75      22.73       7.33
C       2.06      23.68       5.54
C       3.54      19.58       4.86
C       3.76      18.82       6.01
C       2.71      20.51       7.37
C       2.90      20.82       4.98
C       2.46      21.29       6.23
C       1.41      24.90       5.70
O       0.22      27.41       6.42
C       3.37      19.27       7.28
