16

C      28.68      21.82      28.00
C      25.89      21.83      28.00
H      26.03      23.34      26.48
O      23.82      21.48      29.09
H      26.03      20.31      29.53
O      23.82      22.18      26.92
H      28.54      23.40      26.54
C      24.40      21.83      28.00
C      26.59      22.69      27.14
C      30.17      21.82      28.00
H      28.54      20.25      29.46
C      26.59      20.97      28.86
O      30.76      22.92      27.70
C      27.98      22.71      27.17
O      30.76      20.73      28.30
C      27.98      20.94      28.83
