20

N       3.00      11.57      27.92
N      10.09      11.67      27.64
H       3.17      12.27      29.86
H       5.66      12.31      29.85
H       5.50      10.95      25.75
H       3.02      10.92      25.96
H       7.54      13.31      29.11
H      10.04      13.24      28.98
H       9.98      10.11      26.30
H       7.47      10.02      26.31
C       3.73      11.97      28.97
C       5.12      12.00      28.96
C       5.81      11.62      27.79
C       5.04      11.22      26.70
C       3.65      11.21      26.80
C       7.28      11.65      27.73
C       8.04      12.57      28.48
C       9.42      12.55      28.41
C       9.39      10.80      26.90
C       8.00      10.76      26.91
