42

H      11.04      15.53       9.95
H      11.09      19.18      10.09
O      11.63      11.63      14.64
O      10.73      13.46      15.63
O      16.64      21.74       9.83
O      16.35      21.35      12.06
O      10.13      18.03      12.94
O      12.15      19.02      13.24
O      13.64      16.50       8.83
O      14.23      15.41      10.74
H      10.71      12.83      16.39
H      17.22      21.81      12.10
H      11.58      19.69      13.68
H      14.64      14.80      10.09
C      13.55      23.11      10.73
C      10.76      11.41      12.07
C      13.42      21.65      10.44
C      10.94      12.91      12.13
C      12.19      21.02      10.14
C      10.82      13.64      10.94
C      12.07      19.64      10.25
C      11.13      14.99      10.89
C      13.16      18.83      10.58
C      11.59      15.65      12.03
C      14.42      19.43      10.67
C      11.63      14.96      13.25
C      14.56      20.82      10.62
C      11.28      13.59      13.31
C      12.93      17.41      10.92
C      12.05      17.05      11.88
C      11.26      12.79      14.58
C      15.94      21.40      10.77
C      11.33      18.07      12.73
C      13.63      16.41      10.04
Cl      15.81      18.43      10.94
Cl      12.26      15.79      14.62
Cl      10.77      21.86       9.63
Cl      10.33      12.86       9.46
O      14.71      23.54      11.05
O       9.61      10.93      12.27
O      12.49      23.81      10.71
O      11.82      10.81      11.72
