22

H       1.45       0.81       4.58
H       4.74       2.92       3.77
H       3.21       5.33       3.91
H       1.21       4.08       2.27
H      -0.09       3.19       4.68
C       1.95       4.65       6.53
C       2.95       2.51       5.25
C       1.82       1.82       4.41
C       2.56       2.33       3.11
C       3.67       3.00       3.97
C       2.81       4.31       4.02
C       1.69       3.64       3.15
C       0.97       3.14       4.45
C       2.07       3.81       5.32
C       2.71       1.48       1.90
N       3.55       1.93       6.46
O       0.82       5.14       6.83
O       3.04       4.83       7.16
O       1.64       1.34       1.22
O       3.84       0.98       1.63
O       4.77       1.72       6.46
O       2.78       1.70       7.40
