14

C       3.51       5.27      12.28
H       1.22       5.12      13.65
H       4.23       5.24      14.30
O       0.53       5.09      18.81
O       2.81       5.10      18.97
O       2.68       5.38       8.99
O       4.95       5.37       9.14
C       1.71       5.09      18.32
C       3.78       5.36       9.63
C       1.82       5.09      16.88
C       3.66       5.31      11.07
C       3.34       5.21      13.67
C       2.12       5.14      14.27
C       1.96       5.11      15.67
