15

O      15.70       7.19      14.32
C      14.62       7.52      12.26
C      12.78       9.09      11.78
C      14.01       9.24      13.90
O      11.88       9.48       8.36
N      14.08       9.89      14.87
H      11.91       9.55      12.26
H      13.69       8.70       9.87
H      14.46       7.07      11.28
C      12.82       9.05      10.44
C      15.69       6.92      13.07
O      10.62       9.88      10.23
C      11.68       9.51       9.62
O      16.51       6.18      12.43
C      13.84       8.57      12.64
