28

H       9.33       5.38      12.71
H       9.28       5.34      15.21
H      13.53       4.40      12.78
H       9.13       5.14      22.08
H      13.32       4.12      22.16
H      13.40       4.24      19.66
C      11.17       4.51      23.75
C      11.46       4.92      11.11
C      11.42       4.89      12.60
C      10.23       5.16      13.28
C      10.20       5.15      14.67
C      11.37       4.86      15.41
C      12.55       4.59      14.69
C      12.60       4.61      13.31
C      11.36       4.83      16.82
C      11.33       4.80      18.04
C      11.31       4.75      19.45
C      10.13       5.00      20.17
C      10.06       4.94      21.55
C      11.23       4.61      22.26
C      12.43       4.36      21.58
C      12.47       4.43      20.20
O      10.04       4.69      24.31
O      10.38       5.25      10.51
O      12.57       4.63      10.54
O      12.26       4.22      24.35
F      13.68       4.31      15.39
F       9.01       5.32      19.47
