17

H      16.86       4.41       3.72
C      12.25       1.52       2.25
C      15.10       3.31       4.93
C      13.24       2.14       3.19
C      15.27       3.42       3.53
O      15.86       3.79       7.12
O      11.26       0.90       2.79
O      12.46       1.65       1.00
C      13.06       2.03       4.58
O      17.08       4.53       5.36
C      14.33       2.83       2.67
C      13.98       2.61       5.43
O      16.31       4.07       2.96
C      16.07       3.91       5.88
H      12.19       1.49       4.97
H      14.47       2.91       1.59
H      13.87       2.54       6.51
