26

O       7.46       3.08      14.70
O       6.24       1.95      16.24
O       1.80       7.09      16.28
O       2.71       8.02      14.41
H       6.61       5.32      16.65
H       5.42       4.34      17.53
H       3.93       6.14      17.45
H       5.10       7.08      16.53
H       2.30       4.62      16.26
H       2.27       4.54      14.50
H       3.83       2.85      16.29
H       3.82       2.81      14.53
H       6.62       5.29      14.10
H       5.51       4.24      13.23
H       3.92       5.94      13.16
H       5.05       7.01      13.98
C       6.44       2.92      15.44
C       2.65       7.13      15.32
C       5.57       4.94      16.62
C       4.57       6.12      16.56
C       3.67       6.00      15.30
C       2.94       4.63      15.37
C       3.96       3.47      15.40
C       5.40       4.04      15.38
C       5.59       4.89      14.11
C       4.55       6.03      14.05
