16

C       5.71       2.96       4.05
C       6.40       2.38       3.00
C       6.77       1.03       3.07
C       6.48       0.27       4.21
H       6.76      -0.78       4.25
C       5.86       0.88       5.30
C       5.46       2.22       5.22
H       5.36       3.99       3.99
H       5.67       0.33       6.22
O       4.99       2.63       7.54
O       3.83       3.75       5.94
O       8.40       1.22       1.38
C       7.55       0.45       1.93
O       7.31      -0.76       1.57
H       6.65       2.95       2.11
C       4.71       2.91       6.31
