82

H       7.07       6.94       9.51
H       6.78       6.92       7.03
H       3.69       7.07      -7.26
H       5.65       8.82      -3.43
H       5.33       8.90      -0.98
H       5.01       8.93       0.91
H       3.65       4.38       9.92
H       3.37       4.33       7.45
H       4.33       2.19      -1.02
H       6.74       4.21      -9.85
H       4.89       2.15       0.94
H       6.76       2.34       4.76
H       7.31       1.89       3.09
H       6.63       0.64       4.20
H       5.00       1.77      -5.43
H       5.04       0.26      -4.46
H       6.29       1.52      -4.19
H       8.19       3.41      -5.81
H       4.82      11.15       3.44
H       5.01       8.19     -11.13
H       3.57       9.22     -10.84
H       3.41       7.69     -11.79
C       5.49       5.74      11.37
C       5.18       5.43     -11.44
C       4.75       6.82       5.00
C       4.99       4.33       5.04
C       4.17       4.92       7.90
C       4.33       4.95       9.28
C       6.26       6.38       9.05
C       6.10       6.36       7.67
C       5.06       5.63       7.10
C       4.84       5.54       2.83
C       4.85       6.78       3.53
C       4.94       7.98       2.82
C       4.94       4.32       3.56
C       5.37       5.68       9.87
C       5.23       5.68      -9.96
C       5.00       6.78      -0.77
C       4.68       4.31      -0.77
C       4.88       5.54      -1.47
C       5.24       7.95      -1.49
C       5.41       7.91      -2.87
C       5.28       6.72      -3.57
C       4.98       5.51      -2.90
C       4.78       4.31      -3.64
C       4.66       4.41      -5.11
C       5.52       6.75      -5.03
C       4.37       6.43      -7.82
C       4.40       6.56      -9.22
C       6.11       4.87      -9.26
C       6.20       4.83      -7.87
C       5.24       5.59      -7.15
C       4.89       6.78       0.69
C       4.81       5.55       1.40
C       4.75       4.30       0.70
C       4.94       7.97       1.42
C       5.01       3.12       2.82
C       4.50       3.15      -1.51
C       4.56       3.11      -2.92
C       4.85       3.13       1.43
C       6.59       1.69       3.90
C       5.24       1.33      -4.45
C       7.33       4.07      -7.33
C       5.30       9.30       3.46
C       3.93       8.19     -10.96
N       4.94       5.60       5.66
N       5.18       5.58      -5.71
O       6.66       5.90      11.86
O       4.41       5.61      12.02
O       6.27       5.06     -11.98
O       4.04       5.51     -12.00
O       4.51       7.86       5.61
O       5.96       7.74      -5.62
O       5.05       3.31       5.72
O       4.12       3.56      -5.81
O       5.24       1.88       3.38
O       4.38       1.86      -3.41
O       8.26       3.61      -8.02
O       7.35       3.89      -5.99
O       6.37       9.46       4.02
O       4.42      10.28       3.17
O       3.61       7.54      -9.71
