22

H      -1.00       1.97       6.13
H      -3.61      -2.69       7.77
H      -4.85       1.97       8.03
H       0.24      -2.68       5.87
H       0.17      -0.19       5.69
H      -4.78      -0.52       8.22
O      -2.70      -4.90       7.31
O      -0.51      -4.86       6.71
O      -1.91       4.19       6.59
O      -4.10       4.15       7.20
C      -1.63      -4.30       6.97
C      -2.98       3.59       6.94
C      -2.93       2.10       7.05
C      -1.68      -2.81       6.86
C      -0.65      -0.73       6.16
C      -3.96       0.02       7.75
C      -0.60      -2.11       6.26
C      -4.01       1.39       7.64
C      -2.78      -2.12       7.33
C      -1.83       1.41       6.57
C      -2.85      -0.71       7.25
C      -1.76       0.00       6.65
