15

N       4.25       3.99      10.38
N       1.12       7.72      12.11
N       0.32       8.12      13.09
N       0.18       7.11      13.96
N       0.87       6.06      13.59
H       4.23       5.38       8.84
H       2.60       6.91       9.97
H       2.43       4.08      13.22
H       4.09       2.67      11.98
C       3.82       5.15       9.82
C       2.91       5.98      10.45
C       2.38       5.61      11.70
C       2.81       4.39      12.25
C       3.74       3.62      11.57
C       1.45       6.45      12.43
