65

C       5.86       7.37      19.07
C       5.58       8.53      19.81
C       4.38       8.61      20.51
C       3.74       6.50      19.82
C       4.91       6.34      19.10
C       9.12       6.68      13.61
C       9.78       6.17      12.48
C      10.42       7.03      11.59
C      10.40       8.41      11.80
C       9.74       8.93      12.92
P       8.10       5.58      14.66
C       8.40       2.95      15.39
C       9.11       8.07      13.82
C       9.09       1.79      15.74
C      10.48       1.74      15.64
C      10.51       4.04      14.87
C       9.11       4.08      14.95
C      11.18       2.87      15.20
P      10.98       8.41      18.70
C      10.98      10.13      18.07
C      10.57      10.45      16.76
C      10.67      11.76      16.29
C      11.46      11.15      18.90
C      12.32       7.62      17.74
C      12.62       6.28      18.04
C      11.58      12.46      18.43
C      11.19      12.77      17.12
C      14.09       7.61      16.07
C      13.07       8.28      16.75
C      14.37       6.27      16.36
C      13.63       5.61      17.35
H      10.35       6.88      16.17
H       8.33       8.39      19.65
H       6.17       6.05      16.73
H       6.28       9.36      19.83
H       4.13       9.50      21.08
H       2.96       5.74      19.85
H       5.08       5.40      18.57
H       9.78       5.09      12.29
H      10.92       6.62      10.71
H      10.89       9.08      11.09
H       9.73      10.01      13.09
H       8.59       8.48      14.68
H       7.31       2.99      15.44
H       8.53       0.92      16.09
H      11.01       0.83      15.90
H      12.27       2.83      15.14
H      11.07       4.92      14.55
H      10.18       9.67      16.11
H      10.35      12.00      15.28
H      11.27      13.79      16.75
H      11.95      13.24      19.09
H      11.71      10.92      19.94
H      12.06       5.75      18.81
H      13.84       4.56      17.58
H      15.17       5.76      15.83
H      14.67       8.15      15.32
H      12.86       9.32      16.51
N       3.46       7.63      20.51
C       8.24       6.41      16.30
C       9.44       6.98      16.75
C       9.47       7.69      17.96
C       8.29       7.83      18.71
C       7.10       7.23      18.29
C       7.09       6.51      17.08
