18

O       0.00       5.28       8.30
O       0.00       7.05       9.67
O      -0.00       9.37       2.66
O      -0.00      11.24       3.88
H       0.00       9.25       8.46
H       0.00      11.57       5.62
H       0.00      11.43       7.42
H       0.00       7.31       3.88
H       0.00       5.79       5.89
C       0.00       6.55       8.49
C       0.00       7.44       7.29
C       0.00       8.82       7.45
C       0.00       9.68       6.34
C       0.00       9.11       5.03
C       0.00       7.72       4.90
C       0.00       6.87       6.00
C       0.00       9.95       3.79
N       0.00      11.03       6.50
