32

N       0.40       4.20       8.80
H     -12.55       6.77       8.22
H     -12.67       3.27      10.76
H      -0.16       7.37       8.60
H      -7.06       3.32       9.22
H      -5.70       5.21       7.58
H      -5.54       4.22      11.45
H      -7.55       6.13      12.03
H      -6.20       8.01      10.40
H      -7.72       7.13       8.16
H      -1.40       3.33       9.52
C     -12.82       5.93       8.85
C     -12.89       4.14      10.15
C     -11.99       5.00       9.50
C      -0.24       6.30       8.76
C      -0.87       4.23       9.22
C      -1.34       5.56       9.21
C      -6.14       5.41       8.56
C      -6.86       4.37       9.47
C     -10.58       5.04       9.58
C      -2.67       5.93       9.49
C      -7.22       6.48       8.89
C      -7.98       5.43       9.79
C      -6.40       6.97      10.13
C      -5.28       5.90       9.80
C      -7.13       5.93      11.04
C      -6.04       4.85      10.72
C      -9.38       5.21       9.71
C      -3.87       6.02       9.71
N     -14.11       5.66       9.14
N     -14.15       4.56       9.93
N       0.81       5.48       8.52
