30

H      10.37       3.00       8.28
H       6.71      -5.46      11.33
H      10.56       5.49       8.38
H       6.38      -1.01      10.26
H      10.81       1.06       9.41
H       6.60       1.44      10.26
H      10.59      -1.39       9.40
N       8.12      -5.65       9.84
N       9.12       5.70       9.85
H       9.52      -5.68       8.32
H       7.67       5.75      11.33
H       9.78      -3.20       8.23
H       7.40       3.26      11.41
H       6.86      -2.96      11.41
C       8.97      -5.03       8.99
C       8.25       5.09      10.67
C       9.10      -3.65       8.95
C       8.09       3.71      10.70
C       8.34      -2.85       9.82
C       8.86       2.90       9.84
C       7.46      -3.52      10.70
C       9.76       3.56       8.99
C       7.38      -4.90      10.67
C       9.87       4.94       9.02
C       7.36      -0.56      10.09
C       9.83       0.61       9.58
C       7.49       0.82      10.09
C       9.71      -0.77       9.57
C       8.72       1.44       9.84
C       8.47      -1.39       9.83
