14

H       7.16       4.44       2.98
H      10.23       4.44       3.27
O       8.06       2.60       1.58
C       9.13       7.81       5.54
O      10.33       2.49       1.74
C       8.10       5.95       4.24
C       9.19       6.66       4.62
O       7.98       8.23       5.92
C       8.12       4.81       3.34
C       9.23       4.16       2.93
C       9.19       3.00       2.02
O      10.27       8.27       5.88
H       7.13       6.28       4.62
H      10.19       6.41       4.26
