22

O       9.26       8.82       7.86
O       8.17      17.87       8.02
O       7.10       8.77       8.56
O      10.40      17.91       8.42
H       7.18      15.66       8.20
H      10.28      11.02       8.21
H      11.47      15.69       8.29
H       5.99      10.99       8.29
H       5.94      13.49       8.25
H      11.51      13.19       8.28
C       8.17       9.37       8.22
C       8.12      15.11       8.23
C       9.35      12.99       8.25
C       8.10      13.69       8.24
C       9.29      17.30       8.23
C       9.31      15.81       8.24
C       8.15      10.87       8.24
C       6.89      12.95       8.25
C      10.56      13.73       8.27
C       6.91      11.57       8.27
C      10.55      15.11       8.27
C       9.34      11.57       8.23
