16

C       0.00       8.61      15.21
H      -0.00       8.31      13.06
C       0.00       9.55      16.25
O       0.00      10.01      11.22
H      -0.00       7.55      15.46
C       0.00      10.91      15.95
O       0.00      12.13      11.90
H      -0.00      11.63      16.77
C       0.00      11.34      14.63
O       0.00       7.83      17.91
C       0.00       9.10      17.69
O       0.00       9.96      18.62
H      -0.00      12.41      14.41
C       0.00      10.87      12.16
C       0.00      10.40      13.58
C       0.00       9.03      13.88
