26

N       3.25       9.50       7.52
N      -3.06       9.52       7.91
H       1.93       9.60       9.85
H      -2.33       9.44      10.40
H      -1.75       9.48       5.60
H       2.51       9.34       5.04
O      -1.01       9.35       3.23
O       1.26       9.32       3.03
O       1.15       9.69      12.24
O      -1.11       9.43      12.40
O       3.54      10.25       8.47
O       4.05       8.80       6.89
O      -3.35      10.25       6.95
O      -3.87       8.82       8.54
C       0.17       9.35       3.69
C      -0.02       9.55      11.75
C       0.93       9.56       9.41
C      -1.47       9.48       9.73
C      -1.66       9.51       8.37
C      -0.57       9.52       7.44
C      -0.75       9.47       6.03
C       1.65       9.40       5.72
C       1.84       9.48       7.07
C       0.76       9.54       8.00
C      -0.17       9.53      10.26
C       0.34       9.41       5.19
