15

C       6.06       6.82      13.15
C       5.53       6.66      10.92
C       4.35       7.39      11.08
C       6.03       6.21       9.57
O       5.90       4.97       9.30
O       6.58       7.11       8.86
O       1.71       8.24      12.23
N       6.36       6.35      11.93
O       3.02       9.79      13.26
H       4.76       8.03      14.40
H       6.75       6.56      13.95
H       3.69       7.59      10.23
C       2.84       8.70      12.62
C       4.06       7.89      12.35
C       4.95       7.62      13.40
