32

H      11.77       1.44      10.42
H       4.13      -0.99       7.55
H      11.69       5.12      10.32
H       3.54      -4.52       8.08
H       7.48       4.63       6.45
H       8.87      -5.17       9.89
H       7.49       2.42       7.13
H       8.98      -2.82       9.49
C       6.00      -2.10       7.97
C      10.23       3.63       9.52
C       5.44      -3.37       8.14
C       8.70       4.08       7.83
C       7.33      -4.19       9.22
C       8.28       2.74       7.81
C       7.98      -2.95       9.07
C       8.89       1.82       8.66
C       7.32      -1.89       8.47
C       8.46       0.47       8.61
C       7.92      -0.61       8.46
C      10.67       1.28      10.36
C       5.23      -0.97       7.38
C      11.23       4.14      10.52
C       4.08      -3.68       7.59
C       9.92       2.27       9.53
N       9.65       4.53       8.67
N       6.07      -4.39       8.77
O      10.14       0.31      10.87
O       5.76      -0.03       6.80
O      11.52       3.46      11.50
O       3.59      -3.04       6.67
O       8.17       5.01       7.03
O       7.89      -5.23       9.83
