28

O      19.23      14.20       1.27
O      21.45      13.99       1.66
H      22.47      18.04       4.14
H      18.21      18.46       3.37
F      22.69      15.82       2.97
F      17.99      16.28       2.12
H      22.47      21.92       6.27
H      18.21      22.34       5.50
F      22.69      24.10       7.52
F      17.99      24.56       6.67
C      20.34      25.78       7.89
C      20.34      14.60       1.75
C      20.34      15.91       2.47
C      21.51      16.47       3.05
C      21.53      17.68       3.72
C      20.34      18.42       3.85
C      19.15      17.91       3.29
C      19.17      16.70       2.63
C      20.34      19.66       4.53
C      20.34      20.72       5.11
C      20.34      21.96       5.79
C      21.53      22.47       6.35
C      21.51      23.68       7.01
C      20.34      24.47       7.17
C      19.17      23.91       6.59
C      19.15      22.70       5.92
O      21.45      26.18       8.36
O      19.23      26.40       7.97
