32

O      18.12      28.40      12.06
O      17.25      27.59      10.11
H       7.18      24.20      14.82
H       8.87      25.64      18.53
H      15.00      26.69      10.30
H      16.68      28.13      14.01
O       5.74      23.92      16.77
O       6.61      24.74      18.71
H      11.86      26.61      16.90
H      10.10      25.11      13.03
H      13.76      27.22      15.80
H      12.00      25.72      11.93
O      14.63      27.53      15.48
O      12.74      25.92      11.32
O       9.23      24.80      13.35
C      17.20      27.84      11.36
O      11.12      26.41      17.51
C       6.66      24.48      17.46
C       7.91      24.88      16.74
C       8.00      24.66      15.36
C       9.16      25.03      14.69
C      10.24      25.63      15.39
C      10.11      25.84      16.79
C       8.95      25.47      17.46
C      11.42      26.00      14.71
C      12.44      26.33      14.11
C      13.62      26.70      13.43
C      13.75      26.49      12.04
C      14.91      26.86      11.37
C      15.96      27.45      12.08
C      15.86      27.67      13.46
C      14.70      27.30      14.13
