48

H      17.35       7.52      13.78
C      24.18       7.71      15.75
C      17.17       6.61      15.75
C      23.48       8.03      16.93
C      17.87       6.30      16.93
C      22.11       7.80      17.03
C      19.24       6.52      17.03
H      25.72       7.64      13.68
H      15.63       6.69      13.68
C      21.41       7.25      15.94
C      19.94       7.08      15.94
H      30.43       9.70      15.41
H      10.92       4.63      15.41
C      22.12       6.88      14.79
C      19.23       7.44      14.79
H      28.24       8.87      16.17
H      13.11       5.45      16.17
C      29.68       9.38      14.69
C      11.67       4.94      14.69
C      23.49       7.11      14.69
C      17.86       7.21      14.69
H      27.18       8.27      12.02
H      14.17       6.05      12.02
C      28.46       8.90      15.11
C      12.89       5.42      15.11
N      30.03       9.48      13.39
N      11.32       4.84      13.39
H      29.44       9.17      11.42
H      11.91       5.15      11.42
C      27.51       8.50      14.16
C      13.84       5.83      14.16
N      26.24       8.03      14.47
N      15.11       6.29      14.47
H      24.03       8.49      17.75
H      17.32       5.84      17.75
C      27.88       8.59      12.80
C      13.47       5.73      12.80
H      21.55       8.10      17.92
H      19.80       6.22      17.92
C      29.13       9.08      12.46
C      12.22       5.24      12.46
H      21.59       6.39      13.98
H      19.76       7.94      13.98
C      25.62       8.08      15.71
C      15.73       6.24      15.71
O      26.20       8.46      16.73
O      15.15       5.86      16.73
H      24.00       6.81      13.78
