22

H       4.78      10.29      16.00
H       4.76       7.42      12.97
F       2.14       7.24      12.77
F       2.16      10.50      16.20
F      -2.08       7.25      12.75
F      -2.10      10.48      16.22
H      -4.73      10.28      16.00
H      -4.71       7.47      12.92
C       4.19       9.67      15.33
C       2.80       9.69      15.35
C       2.04       8.87      14.48
C       2.79       8.05      13.62
C       4.18       8.06      13.63
C       0.64       8.88      14.49
C      -0.58       8.87      14.48
C      -1.98       8.87      14.48
C      -2.74       9.68      15.35
C      -4.13       9.67      15.32
C      -4.12       8.08      13.60
C      -2.73       8.06      13.60
N       4.85       8.86      14.48
N      -4.79       8.88      14.45
