50

H       6.51      11.25      22.43
H       8.41       4.87      25.08
H       5.31       8.06      28.87
H       9.61       8.06      18.65
H       5.32       8.05      31.39
H       9.60       8.06      16.13
H       9.60       8.08      31.39
H       5.31       8.04      16.13
H       9.61       8.08      28.87
H       5.31       8.04      18.65
C       6.25       8.06      29.43
C       8.67       8.06      18.09
C       6.25       8.06      30.82
C       8.67       8.06      16.69
C       7.46       8.06      31.53
C       7.46       8.06      15.99
C       8.67       8.07      30.82
C       6.25       8.05      16.69
C       8.68       8.08      29.43
C       6.24       8.04      18.09
C       7.46       8.07      28.74
C       7.46       8.05      18.77
C       7.46       8.06      33.03
C       7.46       8.06      14.49
C       7.80       6.83      20.86
C       7.12       9.28      26.66
C       7.11       9.25      20.85
C       7.81       6.87      26.66
C       7.12       9.21      22.34
C       7.80       6.91      25.18
C       7.46       8.03      23.04
C       7.45       8.09      24.47
C       7.81       6.84      22.35
C       7.10       9.28      25.17
C       6.77      10.36      23.01
C       8.14       5.75      24.50
C       6.76      10.41      24.42
C       8.15       5.70      23.10
N       7.46       8.05      20.22
N       7.46       8.07      27.30
Cl       6.31      11.92      25.10
Cl       8.60       4.19      22.41
O       8.60       8.06      33.60
O       6.32       8.06      13.91
O       6.33       8.06      33.60
O       8.59       8.06      13.91
O       8.07       5.85      20.17
O       6.85      10.27      27.34
O       6.82      10.26      20.21
O       8.10       5.86      27.30
