16

C       0.73       3.65       5.90
C       2.50       4.87       3.00
C       1.72       2.70       6.13
C       1.50       5.81       2.77
C       2.22       4.08       4.14
C       1.01       4.44       4.76
C       1.80       1.68       7.19
O       0.28       7.33       1.46
O       2.52       7.14       1.15
C       1.43       6.84       1.72
S       3.02       2.80       4.96
S       0.21       5.72       3.94
Cl      -0.66       3.93       6.86
Cl       3.89       4.59       2.04
O       0.70       1.38       7.75
O       2.95       1.19       7.44
