14

H       9.62       5.65       7.75
H      12.13       5.65       8.28
Cl       9.96       8.93       9.36
Cl      11.79       8.93       6.68
C      13.90       7.41       7.54
C       7.85       7.41       8.50
C      10.16       6.56       8.07
C      11.60       6.55       7.96
C       9.35       7.51       8.59
C      12.40       7.51       7.45
O      14.55       8.47       7.33
O       7.20       8.48       8.71
O      14.38       6.27       7.85
O       7.37       6.27       8.20
