28

H      27.99       3.21       4.72
H      27.95       5.22       6.19
H      28.29      11.23       5.33
H      28.26      13.27       6.77
H      27.01      10.90      10.13
H      27.01       8.85       8.70
H      27.41       7.73       2.72
H      27.44       5.70       1.26
O      27.90       2.00       2.60
O      27.61       3.32       0.77
O      27.79      14.54       8.80
O      27.45      13.25      10.65
C      27.74       3.13       2.03
C      27.72       4.33       2.91
C      27.86       4.20       4.30
C      27.84       5.32       5.11
C      27.68       6.61       4.56
C      27.67       7.76       5.38
C      27.66       8.75       6.10
C      27.65       9.90       6.92
C      28.00      11.16       6.38
C      27.99      12.30       7.18
C      27.63      12.20       8.54
C      27.29      10.96       9.08
C      27.29       9.82       8.28
C      27.62      13.42       9.39
C      27.54       6.74       3.15
C      27.56       5.61       2.34
