32

C       7.08      10.40       4.34
H       8.25       9.87       6.57
C       6.45       6.38       8.27
H       8.85       7.61       7.51
C       6.73       8.84       8.73
H       7.98       6.84       6.17
C       6.64      11.42       5.36
H       5.84       7.96       6.99
C       7.40      12.56       5.62
H       6.35      10.35       3.51
C       5.47      11.23       6.11
H       8.04      10.70       3.90
C       5.11      12.17       7.06
H       5.51       6.38       8.84
C       6.98      13.47       6.59
H       7.26       6.10       8.96
H       6.39       5.60       7.50
N       7.21       9.04       4.89
H       5.79       8.85       9.30
N       5.85      13.28       7.30
H       6.86       9.85       8.31
O       9.65       8.09       4.21
H       7.55       8.67       9.44
O      10.60       9.40       5.78
H       8.33      12.77       5.09
H       4.84      10.34       5.99
H       4.20      12.06       7.65
H       7.57      14.34       6.84
C       8.24       8.96       5.95
C       7.99       7.72       6.83
C       6.70       7.76       7.66
C       9.60       8.82       5.25
