35

H       3.89      20.15       9.08
H       7.52      17.70       3.30
H       3.98      20.14       3.22
H       0.36      17.69       9.02
H       4.92      18.71       7.35
H       1.37      16.24       7.32
H       2.95      18.70       4.95
H       6.51      16.25       5.01
O       0.28      19.48      10.63
O       5.84      20.92       1.76
O       2.03      20.93      10.55
O       7.60      19.48       1.69
C       1.40      19.87      10.18
C       6.47      19.87       2.13
F       1.93      16.30       4.83
F       5.48      14.59       6.20
F       2.40      14.59       6.11
C       5.83      19.02       3.17
F       5.95      16.31       7.48
C       2.05      19.02       9.15
F       4.30      14.97       8.00
F       3.58      14.97       4.32
C       3.34      19.30       8.68
C       6.52      17.91       3.68
C       4.53      19.29       3.63
C       1.35      17.91       8.64
C       4.65      17.37       5.12
C       3.92      18.48       7.71
C       1.93      17.09       7.68
C       3.94      16.49       6.16
C       3.96      18.47       4.59
C       5.94      17.10       4.64
C       4.92      15.57       6.95
C       2.95      15.57       5.36
C       3.22      17.37       7.20
