51

C      10.61       3.44      13.64
C      11.69       2.60      11.81
C      12.40       4.54      12.77
H      16.32       9.92      10.95
H      17.85       8.37      14.69
C       7.67       3.19      17.05
C       8.12       4.30      16.42
C       9.17       4.34      15.44
C       9.52       3.33      14.60
H      10.49      -1.03       5.99
H      14.18      -2.37       7.82
H       5.40       5.05      17.75
C      15.02       7.14      11.72
C      14.08       6.04      11.75
C      13.30       5.69      12.80
C      15.70       7.60      12.80
H       6.84       1.20      19.13
C      12.13      -0.19       8.31
C      13.13       0.34       9.07
C      12.94       1.36      10.07
C      11.83       1.54      10.82
H       7.69       5.27      16.71
H       9.73       5.28      15.33
H       8.18       2.24      16.86
H       8.96       2.40      14.56
N      18.38       9.99      13.44
N      17.89      10.48      12.25
H      15.24       7.57      10.74
H      13.98       5.45      10.84
H      15.57       7.08      13.76
H      13.25       6.30      13.70
N      13.06      -2.99       6.13
N      11.88      -2.56       5.55
N       5.25       2.48      19.70
N       4.80       3.70      19.26
H      14.16       0.01       8.89
H      13.78       2.04      10.26
H      11.13       0.23       8.41
H      10.99       0.84      10.77
N      10.68       2.46      12.70
N      12.56       3.62      11.79
N      11.45       4.49      13.72
C      16.66       8.68      12.80
C      17.64       8.92      13.78
C      16.87       9.70      11.86
C      11.41      -1.53       6.27
C      12.29      -1.24       7.33
C      13.31      -2.20       7.20
C       5.59       4.11      18.26
C       6.60       3.15      18.01
C       6.32       2.14      18.95
