16

C       7.33       6.44      20.45
O       7.47       7.61      17.00
C       7.40       6.53      19.07
C       7.46       2.83      20.21
C       7.44       4.18      19.79
C       7.36       5.09      20.87
O       7.32       8.87      18.91
C       7.40       2.74      21.59
C       7.40       7.76      18.27
S       7.49       4.99      18.27
S       7.31       4.28      22.39
O       7.32       1.66      23.66
H       7.27       7.32      21.10
H       7.52       1.95      19.56
C       7.40       1.51      22.39
O       7.47       0.40      21.75
