14

O       3.18       6.69       6.81
O       4.51       5.79       8.42
C       6.98       9.27       8.21
C       4.89       8.02       7.72
C       6.62      10.50       8.64
C       6.14       8.08       8.21
O       8.55      11.51       7.72
C       4.15       6.74       7.66
O       7.34      12.67       9.25
C       7.57      11.63       8.52
H       6.60       7.15       8.55
H       4.40       8.89       7.27
H       8.00       9.15       7.86
H       5.66      10.70       9.12
