16

N       1.77       8.92       0.96
N       4.81       6.02       3.26
N       3.97       5.59       4.23
N       2.91       6.34       4.23
N       3.04       7.29       3.26
H       7.23       8.84      -0.01
C       4.81       7.85       1.59
C       4.21       8.58       0.53
C       4.23       7.08       2.67
C       2.83       8.81       0.14
N       6.14       7.89       1.43
N       6.30       8.62       0.34
N       5.21       9.07      -0.25
N       2.42       8.97      -1.13
N       1.08       9.19      -1.07
N       0.69       9.17       0.17
