28

H     -10.44       4.86      18.53
H     -11.33       2.83      14.84
H     -10.48      13.11      13.99
H     -11.28      11.07      10.29
O     -10.76      14.58      12.06
O     -11.01      13.48      10.08
O     -10.58       2.43      18.72
O     -11.19       1.37      16.79
C     -10.89      13.53      11.35
C     -10.89       2.40      17.48
C     -10.89       3.71      16.76
C     -10.63       4.90      17.46
C     -10.64       6.11      16.78
C     -10.89       6.20      15.39
C     -11.14       4.97      14.71
C     -11.14       3.75      15.38
C     -10.89       7.43      14.71
C     -10.89       8.50      14.12
C     -10.88       9.74      13.44
C     -10.66      10.97      14.11
C     -10.66      12.19      13.45
C     -10.88      12.22      12.07
C     -11.11      11.03      11.36
C     -11.11       9.82      12.03
Br     -11.47       4.97      12.85
Br     -10.30       7.69      17.78
Br     -11.44       8.25      11.04
Br     -10.33      10.97      15.98
