15

O       5.05       1.27      26.09
H       4.15       4.86      27.53
C       4.35       4.82      26.45
O       6.45       5.96      27.86
C       4.98       6.14      26.00
H       5.38       3.47      25.08
H       4.30       6.97      26.25
O       7.22       7.01      25.99
H       3.37       4.71      25.95
C       4.82       2.31      26.79
H       6.25       3.82      26.59
H       5.13       6.18      24.91
C       6.32       6.40      26.67
O       4.32       2.34      27.96
C       5.25       3.63      26.16
