16

C      18.49      14.67       2.00
H      18.37      14.23       4.83
H      18.61       8.86       3.31
C      18.55       9.74       3.95
O      18.55      14.52       0.73
C      18.43      13.36       4.19
C      18.49       9.65       5.33
O      18.59       7.32       5.51
O      18.42       8.58       7.41
C      18.53      11.09       3.53
C      18.50       8.43       6.14
S      18.40      11.20       6.13
C      18.45      12.01       4.61
S      18.57      11.90       2.01
C      18.49      13.45       2.81
O      18.43      15.78       2.64
