50

C       2.92       0.07       9.70
H       6.58     -11.66       8.83
H       3.39      -4.89      10.27
H       4.22      -5.01       8.71
H       4.50      -7.28       9.22
H       4.08      -7.04      10.93
H       6.51      -3.86      12.16
H       4.88      -4.52      12.36
H       7.47      -6.01      12.06
H       8.10      -6.20       9.66
C       7.85      -6.66       7.27
C       7.25      -2.79       7.84
C       6.84       0.10      11.54
N       9.74     -11.60       9.48
N       8.65     -12.14       8.87
H       2.17      -0.54       9.20
N       3.87       1.86      10.55
N       2.76       1.38       9.88
H      10.06      -9.95      10.78
O       6.74      -6.62       8.16
O       6.59      -4.02       8.11
H       8.67      -7.27       7.69
H       8.22      -5.65       7.04
O       5.83       1.12      11.47
H       7.49      -7.12       6.34
H       7.57      -3.97       9.93
H       5.92      -6.61      12.63
H       8.34      -2.88       8.02
H       6.85      -1.96       8.45
H       7.08      -2.56       6.78
H       7.19      -0.17      10.53
H       6.45      -0.80      12.03
H       7.65       0.54      12.12
C       4.14      -0.37      10.27
C       9.35     -10.53      10.20
C       7.57     -11.40       9.20
C       7.96     -10.34      10.04
C       6.73      -4.49       9.44
C       4.33      -5.18       9.79
C       4.69      -6.65      10.10
C       7.21      -9.21      10.41
C       5.45      -4.23      10.30
C       7.03      -6.03       9.41
C       6.18      -6.76      10.49
C       6.39      -6.03      11.84
C       5.80      -4.60      11.76
C       6.65      -8.14      10.55
C       5.02      -2.85      10.24
C       4.63      -1.70      10.28
C       4.69       0.83      10.79
