12

O       5.29       5.56       9.24
O       5.86       7.77       9.11
C       5.59       6.67      12.40
O       5.80       5.37      19.61
C       5.60       6.74      11.18
C       5.57       6.45      18.97
C       5.59       6.69       9.75
C       5.59       6.59      13.74
C       5.58       6.38      17.53
C       5.58       6.43      16.31
C       5.58       6.50      14.97
O       5.34       7.60      19.46
