40

C       9.01       3.10       7.75
C       9.60       0.61       7.97
C       9.18       0.60       6.46
C       9.70       1.26       3.16
C      10.01       2.07       8.36
C      10.15       3.17      12.28
C       9.12       3.11       6.22
C       9.86       1.83       5.75
C      11.33       1.90       6.22
C      11.38       2.43       7.66
C       9.77       1.60       4.33
C      10.11       2.29       9.79
C      10.19       2.59      10.96
H       8.13       3.15       5.75
H       7.99       2.84       8.06
H      10.49      -0.02       8.04
H      11.40       3.53       7.64
H      11.91       2.56       5.56
H       9.23       4.09       8.17
C       9.69       0.63       1.87
H       9.69       3.98       5.87
H      11.78       0.89       6.15
C       7.51       0.62       9.31
C      12.80       0.78       8.76
O      10.81       0.38       1.33
O       8.53       0.31       1.40
O       9.00       3.42      12.74
H       6.84       0.95       8.51
H       7.79       1.46       9.95
H       7.00      -0.13       9.93
H       7.35      -0.14       6.37
H       9.56      -0.59       4.97
H      12.73       0.07       7.92
O       8.67      -0.07       8.80
O       7.80       0.73       6.26
O       9.67      -0.63       5.95
O      12.58       2.12       8.35
H      12.09       0.48       9.55
H      13.81       0.75       9.17
O      11.28       3.42      12.85
