81

H       1.54      15.33      13.56
H       1.50      13.24      14.83
H       1.58      11.61      15.85
H       1.48       9.49      17.05
H       3.97       7.58      24.43
H       3.65       7.75      22.51
H       3.62       7.74      20.08
H       2.63       8.01      18.25
H       1.48       4.10      26.92
H       1.45       4.06      24.47
H       1.67       3.92      22.55
H       1.55       3.96      20.12
H       3.25      -1.51      14.78
H       3.19       0.10      15.83
H       3.39       2.21      17.02
H       2.42       3.71      18.23
H       0.60      -1.76      10.59
H       0.75       0.39      11.78
H       1.07       2.10      12.65
H       1.21       4.19      13.88
H       3.97      11.40      11.77
H       3.78       9.70      12.67
H       3.72       7.60      13.90
H       2.43       5.88      14.52
H       3.22      -4.51      13.03
H       4.20      14.42      10.04
H       4.16       7.59      27.91
C       2.76      15.84      11.24
C       1.76      -4.09      11.24
C       2.71       5.85      28.53
C       2.08      14.46      13.20
C       2.07      13.28      13.91
C       2.06      10.74      15.41
C       2.01       9.54      16.10
C       3.45       6.82      26.34
C       3.40       6.81      24.94
C       3.19       6.90      22.01
C       3.16       6.91      20.62
C       2.79      14.58      11.98
C       2.73      12.13      13.41
C       2.69      10.85      14.15
C       2.59       8.37      15.57
C       2.54       7.09      16.30
C       2.57       7.07      17.70
C       2.04       4.85      26.36
C       2.03       4.83      24.98
C       2.10       4.77      22.03
C       2.05       4.78      20.64
C       2.60      -2.74      13.18
C       2.65      -1.53      13.87
C       2.74       0.99      15.38
C       2.84       2.19      16.07
C       2.75       5.83      27.07
C       2.70       5.83      24.23
C       2.67       5.83      22.75
C       2.58       5.85      19.90
C       2.53       5.86      18.42
C       2.45       4.66      17.69
C       1.20      -1.68      11.50
C       1.29      -0.47      12.18
C       1.58       2.10      13.61
C       1.67       3.30      14.30
C       3.48      13.45      11.49
C       3.42      12.24      12.20
C       3.26       9.67      13.63
C       3.22       8.47      14.32
C       1.86      -2.83      11.97
C       2.01      -0.37      13.39
C       2.11       0.91      14.13
C       2.31       3.38      15.55
C       2.41       4.65      16.29
C       2.46       5.87      15.61
O       3.63       6.52      29.16
O       3.68      16.04      10.34
O       2.66      -5.00      11.50
O       1.77       5.22      29.14
O       0.81      -4.29      10.41
O       1.82      16.68      11.47
O       3.27      -3.78      13.71
O       4.19      13.47      10.34
O       4.16       7.80      26.94
