17

C      -4.33       3.86       2.91
O      -5.56       5.48       1.76
C      -4.38       5.08       2.09
C      -1.96       4.15       3.76
O      -3.28       5.64       1.76
C      -3.40       2.20       4.43
C      -4.53       1.62       4.87
C      -3.28       3.44       3.66
H      -2.45       1.72       4.71
H      -5.52       2.05       4.69
O      -5.65      -0.18       5.84
H      -5.26       3.28       2.89
H      -1.38       3.77       4.62
H      -1.36       4.00       2.85
H      -2.09       5.24       3.86
C      -4.51       0.35       5.62
O      -3.37      -0.11       5.98
