28

C       7.42      13.21      14.00
C       7.39      18.81      14.03
H       8.52      16.85      16.04
H       6.32      15.17      12.00
H       5.10      16.81      14.00
H       9.74      15.22      14.04
O       5.57      16.12      16.97
O       6.01      13.98      16.64
O       9.27      15.91      11.06
O       8.83      18.05      11.41
C       7.37      10.56      13.95
C       7.35      21.47      14.07
N       6.06      15.18      16.34
N       8.78      16.85      11.71
O       8.46       9.97      13.68
O       6.24      22.03      13.77
O       6.25      10.01      14.22
O       8.44      22.04      14.37
C       8.05      16.47      15.13
C       6.80      15.55      12.91
C       6.77      15.57      15.11
C       8.07      16.46      12.94
C       7.40      12.00      13.95
C       7.36      20.03      14.07
C       8.71      15.57      14.05
C       6.13      16.45      14.00
C       7.44      14.62      14.03
C       7.40      17.40      14.02
