36

N       7.50       3.36       1.20
N      -0.08      -1.68      -1.96
N       2.35       6.76      -6.10
N       3.34       1.91      -1.23
N       2.14       2.67      -3.14
N       3.90       3.99      -2.24
H       7.35       5.41       0.99
H       5.34       5.29      -0.53
H       5.50       1.00      -0.16
H       7.55       1.29       1.29
H      -0.89      -1.12      -3.78
H       0.51       0.97      -3.96
H       2.24      -0.04      -0.14
H       0.80      -2.12      -0.13
H       3.18       8.12      -4.77
H       3.53       6.40      -2.95
C       6.90       4.46       0.70
H       1.56       5.28      -7.32
C       5.80       4.39      -0.14
C       5.28       3.13      -0.46
C       5.89       1.99       0.07
C       7.01       2.14       0.88
C       4.11       3.00      -1.35
H       1.75       3.47      -5.57
C       0.59       0.31      -3.09
C       1.48       0.61      -2.05
C       1.56      -0.25      -0.96
C      -0.17      -0.84      -3.01
C       2.36       1.80      -2.14
C       3.08       6.12      -3.90
C       2.88       7.07      -4.90
C       2.08       4.49      -5.37
C       1.96       5.49      -6.32
C       2.91       3.76      -3.11
C       0.76      -1.39      -0.95
C       2.68       4.80      -4.14
