36

C       5.08      17.08       3.05
H       6.90      21.08       0.60
N       6.78      22.46      -3.40
H       7.96      18.13      -2.35
N       8.08      22.13      -3.73
N       8.08      15.01       3.40
H       7.96      16.39      -0.60
H       6.90      19.34       2.35
N       6.78      15.34       3.73
H       5.19      22.39      -0.74
H       9.67      19.48      -3.65
H       9.67      15.08       0.74
H       5.19      17.99       3.65
H       4.32      22.26      -2.27
H      10.54      21.01      -3.53
H      10.54      15.21       2.27
H       4.32      16.46       3.53
H       4.74      20.79      -1.34
H      10.12      20.08      -2.05
H      10.12      16.68       1.34
H       4.74      17.39       2.05
C       7.12      20.05       0.33
C       7.75      18.41      -1.31
C       7.75      17.42      -0.33
C       7.12      19.06       1.31
C       7.43      19.74      -1.01
C       7.43      17.73       1.01
C       7.43      20.78      -2.04
C       7.43      16.69       2.04
C       6.39      21.67      -2.36
C       8.47      21.09      -2.94
C       8.47      15.80       2.36
C       6.39      16.38       2.94
C       5.08      21.78      -1.66
C       9.78      20.39      -3.05
C       9.78      15.69       1.66
