22

H       1.81       7.00       9.27
H       1.72       7.00      11.75
H       6.05       7.00      11.75
H       5.97       7.00       9.27
H       1.72       7.00      16.25
H       1.81       7.00      18.73
H       5.97       7.00      18.73
H       6.05       7.00      16.25
C       2.73       7.00       9.86
C       2.68       7.00      11.24
C       3.89       7.00      11.98
C       5.09       7.00      11.24
C       5.05       7.00       9.86
C       3.89       7.00      13.39
C       3.89       7.00      14.61
C       3.89       7.00      16.02
C       2.68       7.00      16.76
C       2.73       7.00      18.14
C       5.05       7.00      18.14
C       5.09       7.00      16.76
N       3.89       7.00       9.17
N       3.89       7.00      18.83
