17

C       4.95       5.08       0.25
C       6.00       5.80      -0.29
C       6.06       5.89      -1.80
C       4.79       4.92       1.68
H       3.08       4.83      -0.52
H       4.00       3.48      -0.57
N       4.03       4.49      -0.68
N       6.98       6.44       0.37
H       6.88       6.39       1.39
H       8.79       7.46       0.50
H       7.61       8.23      -0.60
H       8.48       6.74      -1.09
O       6.76       5.01      -2.38
O       5.67       5.50       2.45
O       5.46       6.88      -2.32
O       3.81       4.21       2.12
C       8.01       7.26      -0.24
