78

H       1.76      19.44      20.40
H       1.76      17.26      19.27
H       1.34      13.51      16.81
H       3.81       4.06      20.03
H       3.79       6.15      18.76
H       3.37       7.85      18.01
H       3.42       9.97      16.85
H       2.54      11.73      16.13
H       1.31       2.20      17.08
H       1.30       4.28      15.76
H       1.59       8.09      13.42
H       3.18      10.12       3.73
H       3.22      10.14       6.17
H       3.21      10.09       8.01
H       3.39      10.02      10.42
H       2.40       9.68      12.35
H       0.78      13.68       3.71
H       0.87      13.77       6.16
H       1.19      13.73      10.66
H       3.64      21.24      16.99
H       3.49      19.11      15.77
H       3.80      17.39      15.03
H       3.75      15.35      13.74
H       2.44      13.97      12.47
C       2.73      21.78      19.49
C       1.95      11.86       2.08
C       2.57       1.73      19.41
C       2.16      19.35      19.39
C       2.15      18.12      18.74
C       1.94      15.53      17.12
C       1.91      14.34      16.40
C       3.25       4.12      19.10
C       3.22       5.31      18.37
C       2.99       7.88      16.99
C       3.00       9.11      16.34
C       2.70      20.48      18.77
C       2.62      17.98      17.42
C       2.58      16.70      16.68
C       2.54      14.24      15.16
C       2.50      12.99      14.38
C       2.51      11.75      15.04
C       1.87       3.08      17.43
C       1.86       4.25      16.69
C       2.05       6.86      15.08
C       2.02       8.07      14.42
C       2.65      10.90       4.28
C       2.67      10.93       5.66
C       2.75      10.90       8.58
C       2.85      10.84       9.96
C       2.56       2.99      18.64
C       2.53       5.41      17.14
C       2.51       6.69      16.40
C       2.50       9.24      15.03
C       2.48      10.54      14.32
C       2.43      10.60      12.92
C       1.33      12.91       4.27
C       1.38      12.96       5.66
C       1.60      12.96       8.73
C       1.67      12.92      10.11
C       3.21      20.36      17.47
C       3.13      19.15      16.80
C       3.22      16.56      15.42
C       3.20      15.39      14.68
C       1.97      11.89       3.56
C       2.05      11.96       6.40
C       2.12      11.96       7.88
C       2.31      11.86      10.77
C       2.40      11.82      12.24
C       2.45      13.01      12.98
O       3.50       1.56      20.27
O       3.66      22.60      19.20
O       2.88      11.20       1.49
O       1.64       0.88      19.17
O       1.02      12.49       1.48
O       1.81      21.99      20.35
F       0.95      14.05       8.21
F       1.24      15.50      18.30
F       1.58       5.80      14.36
