76

H      12.07       7.91      13.38
H      10.44       7.25      13.01
H      11.06       7.24      14.71
H      11.74       8.62      24.75
H      11.45       9.74      26.13
H      12.70      10.13      24.92
H      10.59      10.56      17.52
H      11.45      10.17      15.99
H      11.88       9.33      17.52
H      11.02       8.93      20.66
H      11.83       9.58      22.14
H      11.77      10.56      20.64
H       4.55       7.93      15.32
H       3.63       8.85      16.55
H       5.01       7.84      17.06
H       5.10       6.62      23.79
H       6.66       6.21      23.01
H       5.19       6.39      22.01
H       8.87      12.13      17.35
H       8.25      12.73      18.93
H       7.52      13.31      17.40
H      10.14       6.97      21.37
H       9.93       6.21      19.74
H       9.49       5.31      21.23
H       5.41      10.83      21.66
H       5.15      11.71      20.11
H       5.70      12.60      21.57
H       6.64       6.38      16.73
H       6.55       5.69      18.40
H       7.67       4.99      17.19
C       9.02       9.43      26.36
C       7.50       8.74      24.48
C       8.19       9.46      13.66
C       8.72       9.31      24.89
C       7.33      10.27      18.60
C       7.96       7.94      20.02
C       7.39      10.29      20.00
C       7.93       7.92      18.61
C       7.75       9.14      20.71
C       7.64       9.09      17.90
C       8.42       9.52      12.17
C       9.08       9.01      15.87
C       9.23       9.83      22.57
C       9.27       9.18      14.49
C       7.79       9.15      16.42
C       9.60       9.83      23.93
C      11.05       7.79      13.76
C      11.71       9.67      25.07
C      11.06       9.76      16.93
C       8.03       9.22      22.16
C      11.23       9.84      21.26
C       4.62       8.49      16.26
C       5.72       6.76      22.90
C       7.97      12.45      17.91
C       9.52       6.30      20.76
C       5.76      11.65      21.02
C       7.22       5.92      17.55
C       6.70       9.43      15.58
C       7.16       8.67      23.12
C       6.90       9.57      14.20
Cl       5.54       9.84      13.16
Cl       6.34       8.23      25.65
O       9.10      10.61      26.83
O      10.54       9.12      13.94
O      10.81      10.42      24.23
O      10.13       8.69      16.70
O      10.00      10.48      21.63
O       5.44       9.66      16.11
O       8.40       8.38      11.61
O       5.97       8.16      22.66
O       6.98      11.41      17.90
O       8.16       6.77      20.72
O       7.15      11.47      20.68
O       8.30       6.76      17.95
O       9.17       8.34      26.99
O       8.61      10.65      11.64
