14

H       4.46      10.40      10.79
C       6.65       9.33       9.68
C       2.46       6.93      13.19
O       1.46       7.67      13.47
H       2.64       9.36      12.07
H       4.40       6.83      12.22
C       4.55       9.34      11.02
O       7.61       8.57       9.32
C       5.61       8.68      10.51
C       3.51       8.74      11.85
C       3.55       7.50      12.37
O       2.63       5.71      13.55
O       6.51      10.57       9.39
H       5.77       7.62      10.67
