26

C      13.78      13.32       1.23
C      14.18      12.99      -0.22
C      12.93      12.59      -1.01
C      11.89      13.73      -0.99
H      15.09      14.04      -1.89
H      15.69      14.55      -0.30
H      14.11      16.28      -0.28
O      16.26      12.11       0.52
O      15.05      10.87      -0.94
H      13.13      15.34       1.82
H      14.68      13.58       1.80
H      13.36      12.42       1.70
H      13.22      12.34      -2.04
H      12.51      11.66      -0.58
H      11.82      14.16       1.75
H      10.94      13.39      -0.54
H      11.64      14.06      -2.00
O      10.38      15.94      -0.90
O      11.67      17.06       0.60
H      13.52      15.76      -1.86
C      15.24      11.90      -0.22
C      11.41      16.07      -0.16
C      14.78      14.27      -0.86
C      13.74      15.42      -0.84
C      12.43      14.93      -0.18
C      12.75      14.48       1.26
