76

H       3.68       3.46       9.17
H       4.03       3.23       6.55
H      -5.60       8.88       4.99
H      -5.93       9.18       7.61
H      -1.15       9.78       5.52
H      -4.33       8.52       2.88
H      -3.77      10.41       1.36
H      -0.53      11.56       3.91
H      -1.23       9.06       8.84
H      -5.36      10.30       9.26
H      -4.66      12.15      10.70
H      -0.58      10.81      10.45
H      -1.34       1.89       3.54
H       2.61       0.23       3.50
H       3.39       2.01       4.99
H      -0.64       3.59       5.19
H      -0.77       2.65       8.58
H       2.42       3.77      11.27
H       1.81       1.85      12.75
H      -1.44       0.84      10.14
H      -0.93       4.96       9.22
H       0.65       5.68       5.27
H      -0.93       7.51       4.97
H      -2.50       6.80       8.92
C       1.60       3.93       8.67
C       2.95       3.73       8.42
C       3.12       3.59       7.02
C       1.88       3.72       6.41
C      -3.50       8.46       5.49
C      -4.85       8.64       5.74
C      -5.02       8.82       7.14
C      -3.77       8.73       7.75
C      -2.02      12.40       1.82
C      -2.13      12.65      11.65
C       0.11      -0.09       2.45
C      -0.01      -0.06      12.27
C      -1.69       9.86       4.58
C      -2.83       9.06       4.35
C      -3.50       9.18       3.11
C      -3.19      10.24       2.26
C      -2.16      11.14       2.58
C      -1.36      10.88       3.70
C      -2.00       9.70       9.27
C      -3.35       9.53       8.91
C      -4.30      10.40       9.50
C      -3.91      11.46      10.31
C      -2.56      11.63      10.64
C      -1.62      10.71      10.15
C      -0.31       1.91       3.89
C       0.58       0.92       3.45
C       1.91       0.98       3.85
C       2.34       2.01       4.69
C       1.44       2.95       5.23
C       0.10       2.89       4.79
C      -0.24       2.53       9.53
C       0.91       3.31       9.79
C       1.57       3.13      11.02
C       1.24       2.06      11.84
C       0.19       1.19      11.49
C      -0.60       1.49      10.38
C      -0.91       5.51       8.28
C      -0.03       5.14       7.25
C      -0.05       5.91       6.07
C      -0.95       6.97       5.91
C      -1.84       7.32       6.93
C      -1.80       6.57       8.11
N       0.96       4.11       7.42
N      -2.85       8.33       6.75
O      -2.99      12.73       1.06
O      -0.94      13.09       2.00
O      -2.68      13.79      11.74
O       0.66      -1.23       2.36
O       0.95      -0.41      13.03
O      -1.12      -0.69      12.14
O      -1.24      12.19      12.46
O      -0.85       0.34       1.71
