28

H       9.03      15.03       7.48
H       4.07      15.02       7.53
C       9.79      14.85      11.91
C       3.37      15.07      11.95
C       9.76      15.20       3.08
C       3.29      14.96       3.11
C       7.27      15.00       8.73
C       5.85      15.03       8.74
C       5.16      15.02       7.52
C       5.82      15.02       6.28
C       7.25      15.05       6.27
C       7.94      15.03       7.49
C       5.05      15.00       5.10
C       4.29      14.96       4.15
C       8.00      15.11       5.08
C       8.76      15.17       4.12
C       4.36      15.09      10.91
C       5.10      15.05       9.94
C       8.79      14.89      10.87
C       8.04      14.95       9.91
O      11.00      14.80      11.48
O       9.41      14.89      13.11
O       2.16      15.15      11.54
O       3.75      14.96      13.15
O      10.96      15.26       3.50
O       9.36      15.14       1.87
O       2.08      14.90       3.51
O       3.69      15.03       1.90
