52

H       2.14      -0.87       7.45
C       6.84      -2.26      15.56
H       1.36       0.42       9.42
C       6.16      -2.04      14.37
H       2.72       0.30      11.57
C       7.51      -1.56      17.87
H       5.42      -2.34       9.51
C       7.97      -0.50      18.68
H       5.94      -1.72      11.75
C       8.61      -0.75      19.88
C       8.83      -2.07      20.34
H       6.05       0.64      17.15
H       7.40      -3.18      15.69
C       8.36      -3.15      19.55
H       6.18      -2.80      13.59
C       7.72      -2.87      18.34
H       7.82       0.52      18.36
C       4.64       1.40      14.96
H       8.94       0.10      20.49
C       8.53      -4.57      20.00
H       7.35      -3.72      17.76
C      10.23      -1.54      22.14
C      10.76      -1.80      23.48
H       4.85       2.12      15.76
C      10.48      -2.97      24.21
H       3.56       1.21      14.93
H       4.91       1.86      14.00
C      11.01      -3.11      25.49
H       9.00      -4.60      20.99
C      11.78      -2.07      26.02
H       9.15      -5.14      19.30
C      11.56      -0.83      24.09
N       3.79      -1.68       8.40
H       7.56      -5.09      20.05
N       4.66      -0.63      13.01
H      10.56      -0.60      21.68
N       9.41      -2.36      21.58
H       9.85      -3.73      23.76
N      12.05      -0.94      25.34
H      10.83      -4.00      26.08
H       7.63      -9.58      13.87
H      11.79       0.10      23.55
C       2.69      -0.91       8.39
C       2.26      -0.18       9.50
C       3.01      -0.24      10.67
C       4.17      -1.02      10.69
C       4.53      -1.72       9.53
C       5.01      -1.15      11.88
C       5.42      -0.86      14.16
C       5.40       0.12      15.18
C       6.09      -0.12      16.36
C       6.81      -1.31      16.60
