16

O      19.67       9.89       6.19
C      17.82       6.29       3.95
C      19.22       6.18       3.88
O      19.65       2.54       1.60
C      18.51       9.42       5.91
O      17.37       2.60       1.64
C      18.53       3.06       1.92
O      17.39       9.93       6.24
S      20.02       7.47       4.69
S      17.02       5.00       3.14
C      17.40       7.44       4.67
C      19.64       5.04       3.16
C      18.48       8.18       5.13
C      18.56       4.30       2.70
Br      15.58       7.81       4.90
Br      21.47       4.66       2.93
