15

O       7.88       7.75       1.73
H       8.79      11.34       0.30
C       8.59      11.31       1.38
O       6.49      12.44      -0.03
H       7.56       9.95       2.75
C       7.96      12.63       1.83
H       8.64      13.46       1.57
O       5.72      13.49       1.83
C       8.12       8.80       1.04
H       6.69      10.30       1.24
H       7.81      12.66       2.91
C       6.62      12.88       1.16
O       8.62       8.83      -0.13
C       7.69      10.11       1.67
H       9.57      11.19       1.88
