15

C       4.93       6.21       7.38
N       3.60       6.62       9.09
C       5.14      10.86       9.22
O       6.10      11.17       8.49
H       3.75       9.30       9.92
C       4.56       7.20       8.28
H       2.72       4.65       9.13
H       3.13       7.03       9.94
C       3.41       5.36       8.69
C       4.55       9.50       9.22
N       4.20       5.07       7.65
O       4.59      11.70      10.07
H       5.65       6.25       6.58
C       5.02       8.55       8.38
H       5.82       8.84       7.70
