10

O       5.20       0.86       1.64
O       3.10       4.52       8.53
C       4.24       4.26       8.03
C       4.06       1.12       2.15
C       4.22       3.56       6.77
O       5.39       4.53       8.51
C       4.17       2.98       5.69
C       4.12       2.34       4.51
C       4.08       1.76       3.43
O       2.92       0.88       1.64
