16

H       2.07       7.46       6.72
C       1.97      13.36       7.68
C       1.97       6.82       3.93
C       2.02      11.87       5.59
C       2.03       8.29       6.02
C       1.99      12.07       6.96
C       1.99       8.11       4.65
C       1.96       9.66       6.35
C       1.96      10.50       5.23
S       1.91      10.56       7.82
S       1.90       9.60       3.76
O       1.04      13.53       8.53
O       2.90      14.19       7.42
O       1.04       6.64       3.08
O       2.90       5.98       4.21
F       2.05      12.87       4.69
