42

H       0.61       6.68      13.49
H      -0.64      11.26      12.31
H       2.17       9.00      14.01
H      -2.21       8.95      11.79
C      -1.96       7.89      14.71
C      -2.72       6.69      14.14
C      -3.69       6.08      15.15
C       1.92      10.05      11.09
C       2.68      11.25      11.66
C       3.66      11.86      10.65
H      -3.16       5.72      16.04
H      -4.43       6.82      15.48
H      -4.24       5.23      14.72
H      -3.26       7.00      13.23
H      -2.00       5.92      13.81
H      -1.44       7.59      15.64
H      -2.66       8.68      15.00
H       4.40      11.11      10.32
H       3.13      12.22       9.76
H       4.20      12.71      11.08
H       1.96      12.02      11.99
H       3.23      10.94      12.57
H       2.63       9.25      10.80
H       1.40      10.34      10.16
O      -0.94       5.53       7.94
O       0.92      12.36      17.85
O       1.34       5.55       7.99
O      -1.36      12.35      17.87
C       0.19       5.87       8.44
C      -0.22      12.04      17.39
C      -0.95       8.45      13.75
C       0.91       9.49      12.05
C       0.33       7.71      13.24
C      -0.37      10.24      12.56
C       0.15       6.69       9.62
C      -0.21      11.23      16.20
C      -1.24       8.97      12.30
C       1.20       8.97      13.50
C       0.03       8.20      11.77
C      -0.07       9.74      14.04
C       0.10       7.39      10.61
C      -0.15      10.54      15.19
