13

O       8.55       2.50      12.25
H       9.65       2.16      10.52
H       9.36       0.72      11.54
O       7.82       0.45       9.48
O       6.62       2.01      10.61
C       9.10       3.84      14.14
C       9.47       2.60      13.33
C       7.67       1.35      10.36
C       8.92       1.66      11.17
H       9.40       1.71      13.98
H      10.50       2.69      12.96
O       8.01       4.42      13.89
O       9.96       4.16      15.02
