26

C      18.74       6.81       3.22
C      19.99      10.39      -3.22
H      19.82       6.74       3.29
C      16.72       7.17       2.36
H      18.91      10.46      -3.29
C      22.01      10.03      -2.36
C      16.61       6.52       3.56
H      15.98       7.52       1.65
C      22.12      10.68      -3.56
H      22.75       9.68      -1.65
H      15.72       6.19       4.08
C      18.72       8.00       1.06
C      20.01       9.21      -1.06
H      23.02      11.01      -4.08
H      20.30       8.81       2.29
C      19.90       8.71       1.28
H      18.43       8.39      -2.29
C      18.83       8.49      -1.28
C      18.18       7.89      -0.22
H      17.27       7.31      -0.39
C      20.56       9.32       0.22
H      21.46       9.90       0.39
N      17.87       6.31       4.08
N      20.86      10.90      -4.08
N      18.09       7.36       2.16
N      20.65       9.84      -2.16
