26

C      23.60       8.83      15.75
C      28.71      11.84      11.58
C      24.12       8.14      14.66
C      25.10       8.72      13.87
O      22.13       8.92      17.60
O      22.15       7.04      16.32
C      28.19      12.52      12.69
C      27.22      11.93      13.47
C      28.22      10.56      11.31
C      27.24       9.99      12.12
C      24.10      10.11      16.02
C      25.08      10.67      15.22
H      23.76       7.14      14.41
H      28.55      13.52      12.94
C      25.64      10.01      14.09
C      26.68      10.64      13.25
H      23.70      10.66      16.87
F      25.52       7.93      12.82
H      25.43      11.66      15.47
F      26.81      12.71      14.53
O      30.13      13.66      11.00
O      30.21      11.75       9.77
H      28.62      10.01      10.46
H      26.90       8.99      11.86
C      22.55       8.22      16.62
C      29.76      12.47      10.72
