22

F       5.61       1.51       9.91
F       5.70      -1.16      10.05
H       4.22      -2.11      14.75
H       3.41      -0.78      16.66
H       3.70       2.83      14.33
H       3.11       1.70      16.44
C       4.96      -2.66      12.30
C       4.75       3.16      12.02
O       6.09      -3.21      12.12
O       3.85      -3.25      12.47
O       3.67       3.74      11.72
O       5.87       3.71      12.29
C       4.91      -1.16      12.29
C       4.44      -0.41      13.42
C       5.28      -0.49      11.15
C       4.10      -1.03      14.65
C       3.64      -0.28      15.72
C       4.74       1.66      12.11
C       5.21       0.91      11.06
C       4.33       1.01      13.31
C       3.83       1.75      14.42
C       3.49       1.12      15.60
