26

H       6.31       0.21      13.09
H       6.36       1.51      11.91
H       6.34      -0.06      10.17
H       6.27      -1.36      11.35
H       8.50      -0.79      13.99
H       8.41      -2.37      12.27
H      10.11       1.67      11.70
H       8.61       2.37      11.06
H       8.60       0.79       9.34
H      10.08       0.07       9.98
H      10.04      -0.17      13.37
H       9.98      -1.80      11.67
C       8.29      -1.90       9.57
C       8.36       1.91      13.75
C       6.86       0.57      12.21
C       6.84      -0.47      11.07
C       9.00      -0.41      13.08
C       9.08       1.43      11.39
C       8.31       0.89      12.62
C       8.28      -0.88      10.70
C       8.97      -1.47      11.95
C       9.07       0.38      10.25
O       7.24       2.33      14.19
O       7.17      -2.31       9.13
O       9.51       2.25      14.18
O       9.44      -2.27       9.14
