36

C       1.90       6.04      26.53
H      -4.68      11.68      23.37
C       2.64       6.37      25.38
H      -4.63      13.60      21.71
C       2.33       7.48      24.62
H      -2.39      14.29      20.75
C       2.15       4.77      27.25
H      -0.36      13.18      21.56
C       1.88       4.58      28.61
H      -0.29       8.66      26.46
C       2.06       3.33      29.19
H       0.27       6.68      27.82
C       2.77       2.44      27.19
H       3.49       5.75      25.09
C       2.63       3.66      26.54
H       2.94       7.74      23.75
H       1.52       5.40      29.24
H       1.86       3.15      30.25
H       3.10       1.55      26.64
H       2.85       3.72      25.48
H       1.27      11.50      21.93
C      -3.76      12.04      22.92
C      -3.72      13.09      22.00
C      -2.48      13.49      21.48
N      -2.65      11.38      23.30
N      -0.43       9.95      24.11
C      -1.33      12.84      21.91
C      -1.47      11.77      22.79
N       1.66       9.96      23.22
C      -0.35      10.93      23.20
N       0.89      10.92      22.67
C       0.83       9.39      24.11
N       2.48       2.25      28.49
C       1.23       8.28      24.97
C       0.53       8.01      26.16
C       0.86       6.90      26.93
