78

H      10.22       9.89      21.64
H       6.91       4.49      25.01
H       9.00       8.63      31.21
H       9.97       5.72      15.66
H       9.32      10.85      25.83
H       8.93      11.90      24.42
H      11.22      12.96      24.65
H      10.25      13.17      26.14
H      11.53      11.93      26.08
H       8.05       2.33      22.78
H       8.08       3.17      21.19
H       5.86       2.23      20.61
H       6.99       0.91      21.01
H       5.76       1.41      22.20
H       8.62      10.55      30.04
H       7.12       9.63      30.35
H       6.07      10.67      28.30
H       6.62      11.92      29.45
H       7.58      11.57      27.99
H      11.77       5.85      17.02
H      11.08       4.20      17.04
H      12.04       3.83      19.34
H      13.32       4.25      18.17
H      12.73       5.47      19.32
C      10.46       6.24      28.53
C       7.19       7.42      17.76
C      10.85       6.10      29.88
C       7.13       7.47      16.35
C      10.31       6.98      30.82
C       8.15       6.82      15.62
C       9.42       7.99      30.44
C       9.20       6.18      16.28
C       9.03       8.13      29.11
C       9.26       6.14      17.67
C       9.55       7.23      28.15
C       8.24       6.77      18.41
C      10.54       6.85      32.31
C       8.16       6.71      14.11
C       7.79       5.79      20.60
C       9.71       8.35      26.01
C       9.15       7.89      20.31
C       8.16       6.40      26.35
C       9.19       8.02      21.78
C       8.05       6.30      24.87
C       8.58       7.05      22.62
C       8.68       7.25      24.03
C       7.92       5.91      22.07
C       9.37       8.37      24.58
C       9.79       9.14      22.32
C       7.38       5.21      24.34
C       9.85       9.37      23.71
C       7.33       4.98      22.95
C       9.74      11.42      24.99
C      10.75      12.43      25.49
C       7.43       2.77      21.98
C       6.44       1.77      21.42
C       7.74      10.09      29.56
C       6.95      11.12      28.78
C      11.39       5.05      17.68
C      12.43       4.62      18.69
I      11.23       4.98      27.03
I       5.75       8.35      18.99
I      12.14       4.56      30.51
I       5.62       8.60      15.42
N       8.38       6.82      19.83
N       9.12       7.34      26.79
O      11.71       6.99      32.77
O       7.04       6.64      13.54
O       9.48       6.64      32.96
O       9.30       6.63      13.54
O       7.19       4.89      20.01
O      10.53       9.11      26.54
O       9.72       8.67      19.55
O       7.55       5.69      27.13
O      10.43      10.53      24.06
O       6.66       3.86      22.58
O       8.18       9.07      28.64
O      10.24       5.54      18.40
