28

O       5.72       7.97       7.98
O       6.59       5.93       8.38
H      14.67       7.42       4.15
H      13.00      11.32       3.38
O      18.27       9.61       1.67
H       9.32      10.16       5.50
O      17.40      11.66       1.26
H      10.99       6.26       6.26
C       6.65       7.10       7.90
C      17.34      10.48       1.75
C      16.08      10.08       2.47
C      15.91       8.79       3.05
C      14.75       8.42       3.72
C      13.69       9.33       3.85
C      13.82      10.61       3.29
C      14.98      10.97       2.62
C      12.50       8.95       4.53
C      11.49       8.63       5.12
C      10.30       8.26       5.80
C      10.17       6.98       6.35
C       9.01       6.61       7.02
C       7.91       7.50       7.18
C       8.08       8.79       6.59
C       9.24       9.16       5.93
Br      17.21       7.38       3.02
Br      14.90      12.76       1.96
Br       9.09       4.82       7.69
Br       6.78      10.20       6.63
