20

H       4.40       9.38      14.94
H       4.40       9.38      17.43
H       6.89       5.86      17.43
H       6.88       5.85      14.94
C       5.55       7.52      10.70
C       5.58       7.62      21.67
C       6.34       6.62      16.88
C       6.34       6.62      15.49
C       5.63       7.61      19.01
C       5.61       7.59      13.36
C       5.58       7.57      12.14
C       5.61       7.59      20.22
C       4.94       8.61      16.88
C       4.94       8.61      15.49
C       5.64       7.62      17.59
C       5.63       7.61      14.78
O       5.53       8.64      10.09
O       5.54       8.78      22.20
O       5.54       6.36      10.17
O       5.60       6.50      22.27
