18

C      15.43      15.72      10.40
N      16.84      16.65      14.97
O      15.65      15.87       9.15
O      20.22      18.74      13.48
O      14.45      15.09      10.92
H      17.49      17.05      15.64
H      16.07      16.08      15.27
O      19.03      18.08      15.30
C      18.22      17.53      13.14
H      17.66      17.16       9.77
H      15.35      15.66      13.06
H      19.26      18.20      11.39
C      19.22      18.16      14.02
C      16.41      16.35      11.34
C      17.10      16.80      13.64
C      17.52      17.07      10.84
C      16.21      16.22      12.71
C      18.40      17.64      11.74
