22

C       2.03      10.77       4.13
C       1.01      11.04       3.30
C       2.63      11.55       5.18
C       2.28      12.77       5.66
H       1.30      14.95       7.37
I       5.39      11.56       7.57
I       2.64       8.13       1.72
N      -1.48       8.88       1.70
N      -0.36       8.10       1.54
H       2.40       9.74       4.06
H       3.40      11.00       5.73
H       1.49      13.35       5.17
N       2.80      14.55       8.82
N       3.84      13.67       8.89
C      -1.09      10.03       2.24
C       0.70       8.81       1.98
F      -2.00      10.97       2.55
F       0.43      12.29       3.29
C       0.30      10.08       2.48
C       2.17      14.36       7.64
C       3.85      12.95       7.75
C       2.79      13.33       6.90
