44

C      -1.66       0.33      14.34
H      -3.23       1.54      20.11
H      -0.76       0.45      12.38
H      -2.26      -2.02      17.85
H      -0.58      -3.93      21.86
H      -2.95      -1.17      24.21
C      -0.17       5.09      13.32
C      -2.39      -1.39      12.86
N      -2.31       0.10      16.65
N       2.46       3.66      11.46
N       2.62       2.34      11.02
N      -1.67      -2.78      24.66
H      -0.25       4.92      14.40
H      -0.87       4.44      12.77
H      -0.39       6.14      13.10
N      -0.90      -3.66      23.93
N      -2.64       0.70      17.73
O       1.19       4.89      12.87
O      -2.54      -0.67      14.09
H      -1.38      -1.81      12.77
H      -2.60      -0.75      11.99
H      -3.13      -2.20      12.90
F       1.04       3.29      15.43
F      -0.73       2.44      17.20
F      -2.98       0.41      22.42
F      -1.90      -3.50      19.93
C      -1.08      -3.36      22.63
C      -1.96      -2.27      22.49
F       1.66       0.29      11.57
C       1.56       3.66      12.45
C       1.10       2.35      12.75
C      -2.36      -1.59      21.27
C       1.80       1.61      11.78
C      -2.25      -2.18      19.99
C      -2.44      -1.52      18.80
C      -2.76      -0.15      18.84
C      -2.99       0.48      20.07
C      -2.30      -1.94      23.82
C      -2.80      -0.25      21.23
C      -0.82       1.92      15.96
C       0.11       2.37      15.03
C      -1.70       0.86      15.67
C       0.15       1.86      13.72
C      -0.77       0.84      13.40
