11

C      15.04      11.74       2.39
C      13.93      11.21       3.27
C      14.09       9.89       3.92
C      13.36       9.55       5.19
O      13.80       8.52       5.81
H      13.28      11.96       3.72
H      15.01       9.32       3.74
O      15.88      10.90       1.95
O      15.01      12.99       2.19
O      13.25      10.04       2.76
O      12.38      10.29       5.53
