15

O       8.57       6.83       4.78
H       5.44       5.94       0.41
O       4.75       5.10      -4.65
O       6.50       6.55      -5.00
O       8.04       7.80      -0.54
O       7.09       8.58       4.84
H       8.69       8.28       0.01
C       7.74       7.65       4.27
C       5.68       5.90      -4.27
C       7.51       7.49       2.85
C       7.14       7.17       0.26
C       5.97       6.25      -1.65
C       6.13       6.42      -0.28
C       7.31       7.33       1.66
C       5.81       6.09      -2.85
