12

C      12.73       4.26       7.41
C      12.68       4.49       8.73
C      12.62       4.71       9.94
O      12.74       6.27      11.62
O      11.70       4.28      12.02
C      12.36       5.12      11.29
C      13.36       3.25       2.34
O      12.98       2.11       1.99
O      14.06       4.09       1.64
C      13.03       3.66       3.68
C      12.89       3.86       4.88
C      12.78       4.07       6.20
