19

C       7.78      -1.80      10.12
N      10.88      -0.94      11.51
C       7.85      -1.45      12.31
C      11.56      -2.06      11.07
H       5.96      -2.56      12.65
C       9.68      -0.38      10.92
H       8.05      -1.74       9.07
H       8.21      -1.03      13.25
H      11.22      -2.65      10.22
C      12.67      -2.16      11.87
H       9.52       0.61      11.37
C      11.58      -0.40      12.54
H       9.81      -0.24       9.84
N       6.71      -2.41      10.63
H      13.48      -2.89      11.83
N      12.68      -1.12      12.78
H      11.28       0.51      13.05
N       8.50      -1.21      11.11
C       6.75      -2.20      12.00
