36

H       7.72       6.22       7.90
H       7.15       7.08       6.45
H       8.74       6.28       6.45
H       7.39      12.12       7.90
H       8.42      12.17       6.45
H       6.93      11.20       6.45
H       5.85       9.08       8.17
H       6.43       8.22       9.61
H       6.33       9.99       9.61
H      12.67       9.45       7.89
H      12.20       8.54       6.44
H      12.10      10.31       6.44
C       9.26       9.27       5.24
C       6.57       9.12       9.00
C      11.96       9.41       7.06
C       9.25       9.26      10.81
C       9.25       9.26      13.47
C       9.25       9.27       2.58
C       9.83      10.40       8.46
C       9.95       8.20       8.46
C       7.97       9.19       8.47
C       8.55      10.34       7.57
C       8.67       8.11       7.57
C       9.25       9.27       4.02
C       9.25       9.26      12.03
C      10.56       9.34       7.56
C       9.26       9.27       6.65
C       9.26       9.27       9.41
C       7.78      11.52       7.07
C       8.04       6.86       7.07
I      10.74      12.18       9.17
I      11.05       6.53       9.17
O      10.40       9.27       2.00
O       8.11       9.27       2.01
O       9.26      10.41      14.04
O       9.26       8.12      14.04
