24

C      20.35      11.53       0.57
C      24.92      18.10      -0.57
C      22.61      14.36      -0.49
C      22.66      15.28       0.49
N      20.59      10.61      -0.40
N      24.69      19.02       0.40
H      22.11      15.09       1.42
H      21.59      10.13      -2.13
H      23.68      19.51       2.13
H      22.80      12.33      -2.26
H      22.47      17.30       2.26
H      20.73      13.47       1.37
H      24.54      16.16      -1.37
H      19.65      11.22       1.34
C      21.45      10.91      -1.38
C      23.83      18.72       1.38
H      25.62      18.41      -1.34
H      23.16      14.54      -1.42
C      22.10      12.13      -1.44
C      23.17      17.50       1.44
C      21.89      13.09      -0.44
C      23.38      16.54       0.44
C      20.97      12.77       0.58
C      24.30      16.87      -0.58
