30

H       6.07      10.83      30.78
H       5.86      10.82      28.32
H       1.55      10.99      28.72
H       1.80      10.99      31.18
H       6.23      10.97      24.01
H       1.92      10.84      24.40
H       1.71      10.87      21.94
H       5.98      11.00      21.55
O       2.62      10.96      19.51
O       4.88      10.96      19.49
C       3.77      10.96      20.10
O       5.17      10.89      33.21
O       2.90      10.89      33.23
C       4.02      10.89      32.62
F       2.13      10.90      26.54
F       5.65      10.90      26.18
C       3.95      10.91      31.14
C       5.09      10.86      30.32
C       4.96      10.86      28.93
C       3.68      10.90      28.32
C       2.55      10.95      29.16
C       2.68      10.95      30.54
C       3.45      10.89      26.89
C       4.32      10.89      25.84
C       5.23      10.95      23.56
C       2.70      10.90      22.40
C       3.83      10.94      21.59
C       5.10      10.97      22.19
C       4.10      10.91      24.40
C       2.82      10.88      23.79
