30

F       6.14      19.01       7.92
F       6.33      19.91       5.56
F       3.22      17.58       4.06
F       1.93      16.89       6.93
H       2.52      20.76       6.43
H       4.22      21.07       6.83
H       3.87      19.78       8.75
H       2.31      19.17       8.15
H       3.70      16.39       6.08
H       5.59      18.18       4.83
H       5.99      17.25       6.95
H       1.95      18.63       5.26
C       3.80      21.77       2.00
C       4.11      15.67      10.97
C       5.36      18.90       5.63
C       3.48      20.28       6.65
C       3.36      19.35       7.88
C       4.09      16.46       9.76
C       3.94      19.48       5.40
C       5.44      18.20       7.01
C       4.00      17.97       7.57
C       3.19      17.29       6.44
C       2.99      18.27       5.27
C       4.05      17.13       8.76
C       3.88      20.29       4.21
C       3.82      20.98       3.21
O       5.25      15.39      11.46
O       2.97      15.35      11.45
O       2.66      22.04       1.51
O       4.93      22.09       1.53
