40

H       2.81       4.82      13.56
H       2.70       4.25      16.00
H       2.95       3.52      22.15
H       3.05       4.30      24.53
H       6.57       5.71      21.34
H       7.11       3.85      17.12
H       7.99       4.34      14.34
H       5.70       8.23      24.93
H       7.22       8.93      24.34
H       5.86       8.67      23.22
H       7.47       6.46      24.65
H       7.67       6.91      22.95
C       4.95       4.80      13.46
C       4.80       4.09      20.23
C       4.81       3.89      17.65
C       3.75       4.17      22.49
C       3.80       4.61      23.81
C       4.85       5.43      24.26
C       5.85       5.87      23.37
C       5.80       5.41      22.05
C       4.77       4.55      21.61
C       4.93       5.19      12.01
C       4.90       5.71      25.74
C       3.72       4.66      14.14
C       3.65       4.34      15.48
C       4.84       4.13      16.22
C       6.08       4.23      15.55
C       6.13       4.55      14.17
C       6.94       6.84      23.77
C       6.40       8.25      24.08
N       5.99       3.81      18.31
N       6.00       3.93      19.63
N       3.64       3.72      19.61
N       3.64       3.63      18.30
O       3.80       5.10      11.42
O       6.01       5.60      11.48
O       3.82       6.03      26.32
O       6.03       5.54      26.30
O       7.29       4.03      16.13
O       7.38       4.59      13.62
