30

H       7.11       4.96       4.95
H       7.12       4.82       2.47
H       3.08       6.36       2.38
H       7.25       5.06      -1.97
H       2.90       5.09      -4.37
H       2.94       5.40      -1.92
H       2.96       6.43       5.90
H       7.21       4.64      -5.48
C       4.97       4.68      -6.02
C       5.11       5.75       6.53
C       5.09       5.70       5.07
C       6.23       5.26       4.37
C       6.25       5.18       3.00
C       5.10       5.58       2.26
C       3.96       6.05       2.93
C       3.94       6.10       4.33
C       5.10       5.49       0.85
C       5.11       5.38      -0.37
C       5.10       5.24      -1.77
C       6.29       5.06      -2.49
C       6.27       4.89      -3.87
C       5.03       4.89      -4.57
C       3.84       5.09      -3.84
C       3.86       5.26      -2.47
O       6.08       4.43      -6.64
O       6.19       5.52       7.15
O       4.00       6.03       7.14
O       3.84       4.75      -6.61
O       2.81       6.55       4.92
O       7.45       4.74      -4.51
