29

C       6.40      10.31      25.15
C       6.40       9.18      16.58
C       7.32       9.85      24.22
C       7.32       9.65      17.51
C       7.72      10.67      23.17
C       7.72       8.82      18.57
C       7.15      11.95      23.11
C       7.15       7.54      18.63
H       6.08       9.69      25.99
C       6.22      12.34      24.07
H       6.08       9.80      15.74
C       6.22       7.15      17.67
C       8.63      10.20      22.08
C       8.63       9.30      19.66
H       7.72       8.84      24.34
H       7.73      10.65      17.40
C       7.81       9.75      20.87
H       7.42      12.65      22.31
H       7.42       6.85      19.43
N       5.85      11.54      25.08
N       5.85       7.95      16.66
H       5.77      13.34      24.06
H       5.77       6.16      17.68
H       9.26       9.37      22.44
H       9.26      10.13      19.30
H       9.31      11.01      21.78
H       9.31       8.48      19.96
H       7.14       8.93      21.18
H       7.14      10.57      20.56
