30

C      13.77      16.90       9.08
C      16.02      17.51      10.53
C      14.20      18.22       9.13
C      15.60      16.19      10.47
C      15.34      18.54       9.87
C      14.45      15.86       9.73
H      12.44      14.77      11.16
H      17.29      19.67       8.38
H      11.63      12.39      11.03
H      18.12      22.04       8.55
H      13.63      18.99       8.61
H      16.16      15.42      10.99
I      14.86      10.73       7.54
I      15.19      23.55      12.35
I      16.08      14.12       7.50
I      13.77      20.24      12.18
N      13.00      11.84       9.58
N      16.84      22.54      10.10
F      12.66      16.59       8.35
F      17.13      17.81      11.26
C      14.02      12.20       8.78
C      15.86      22.16      10.94
C      14.53      13.52       8.78
C      15.32      20.86      10.90
C      13.96      14.46       9.65
C      15.83      19.94       9.96
C      12.91      14.06      10.48
C      16.86      20.36       9.11
C      12.45      12.75      10.41
C      17.33      21.66       9.20
