40

H       3.11      15.59      12.40
H       2.96      15.50       9.89
H       2.38      16.42       6.14
H       2.25      12.11       6.33
H       2.75      10.75      13.41
H       1.18      11.95       8.35
H       4.03      15.79       2.55
H       0.66      11.17       3.23
C       2.13      14.08       2.08
C       2.21      13.80      14.15
C       2.18      13.66      12.66
C       2.68      14.72      11.89
C       2.61      14.67      10.51
C       2.07      13.54       9.88
C       1.63      12.42      10.65
C       1.65      12.51      12.05
C       2.28      15.45       5.65
C       2.19      14.28       6.41
C       2.17      13.04       5.76
C       2.16      12.98       4.37
C       2.17      14.16       3.59
C       2.30      15.40       4.25
C       1.02      11.41      12.89
C       1.16      11.11      10.05
C       2.61      16.70       3.58
C       2.47      11.65       3.74
N       1.94      13.44       8.49
N       2.28      14.45       7.80
O       1.11      14.59       1.50
O       3.09      13.50       1.49
O       1.24      13.30      14.79
O       3.21      14.41      14.64
O       1.76      10.60      13.60
O      -0.21      11.42      12.95
O       0.87      11.08       8.74
O       1.06      10.12      10.76
O       3.54      16.64       2.58
O       2.13      17.75       3.93
O       1.63      11.02       2.97
O       3.60      11.21       3.99
