29

C       8.94       0.15      13.44
C       9.96       3.49      10.73
C      10.53       2.61      12.89
H       8.63       3.54      12.42
C      10.15       2.15      14.27
H       8.64       0.93      12.72
C      11.79       2.29      12.37
H       9.28       3.97      10.03
C      12.05       2.53      11.03
H      10.91       2.43      15.01
C       9.82      -2.24      13.51
H       9.18       2.57      14.57
C       9.33      -1.10      12.62
H      12.57       1.83      12.99
C      10.32      -0.77      11.49
H      13.01       2.27      10.58
H      10.71      -1.97      14.10
H      10.08      -3.12      12.90
N      11.14       3.10      10.21
H       9.04      -2.54      14.23
N      10.04       0.66      14.29
H       8.39      -1.42      12.14
O       6.67      -0.46      13.59
H       9.95       0.05      10.87
O       7.71       0.02      15.54
H      10.45      -1.65      10.85
H      11.31      -0.49      11.87
C       7.68      -0.11      14.27
C       9.62       3.26      12.06
