24

O       3.31       5.11      10.80
H      -2.61       6.09       5.56
C      -0.32       4.65      10.88
H       2.25       4.32       8.66
H      -1.06       5.26       5.50
C       1.22       4.32       9.04
C      -1.90       5.52       6.16
H      -1.52       6.15       6.98
C       0.99       4.65      10.38
C      -2.57       4.31       6.69
C      -1.39       4.35      10.05
O       1.89       5.06      12.54
H      -4.81       2.00       6.75
C      -3.98       2.66       6.99
C       2.14       4.97      11.29
N      -3.62       3.69       6.15
H      -3.08       2.03       8.96
C      -3.14       2.65       8.07
N      -2.24       3.68       7.87
H      -2.42       4.39      10.41
C      -1.14       4.01       8.72
H       0.33       3.70       7.16
H      -0.50       4.94      11.92
C       0.16       3.99       8.20
