24

F       3.30      11.72       0.89
H       5.72      11.87      -0.84
H       2.29      13.95      -0.82
H       3.51      15.92       0.82
H       5.81      15.87      -0.85
H       6.94      13.85       0.80
C       4.62      13.89      -5.46
C       5.24      12.77      -0.46
C       3.97      12.83       0.43
C       4.61      13.91       4.00
C       4.62      13.88      -4.02
C       5.91      13.88       0.43
C       4.64      13.91       1.37
C       5.28      15.00      -0.47
C       4.60      13.90      -1.39
C       4.00      15.03       0.43
C       4.61      13.91       5.44
C       3.32      13.94      -0.46
C       4.62      13.91       2.78
C       4.61      13.89      -2.80
O       5.77      13.88      -6.02
O       3.46      13.91       6.01
O       3.48      13.90      -6.03
O       5.75      13.90       6.00
