48

C       1.52      -6.09      28.05
C       2.12      -5.04      27.35
C       2.18      -5.12      25.97
H       2.54      -4.19      27.88
C       1.64      -6.19      25.26
H       1.64      -6.23      24.17
H       0.52      -8.01      27.93
C       1.05      -7.22      26.00
C       0.98      -7.19      27.39
H       3.01      -8.27      32.31
C       1.93      -6.96      30.24
H       2.88      -7.63      34.71
H       0.41      -4.40      33.86
C       2.22      -3.20      24.55
H       0.54      -4.84      31.42
C       1.25      -9.13      24.63
C       1.79      -6.60      31.67
H       1.53      -1.46      22.64
H       3.03       0.10      21.44
C       2.42      -7.41      32.61
H       6.32      -1.02      23.71
C       2.35      -7.06      33.96
H       4.97      -2.73      24.95
C       1.01      -5.23      33.48
C       1.07      -5.48      32.11
H       2.29     -11.09      23.14
C       3.13      -2.24      23.89
H       1.08     -12.81      21.88
C       2.59      -1.42      22.89
H      -2.61     -11.48      23.25
C       3.43      -0.53      22.23
H      -1.53      -9.59      24.50
C       5.26      -1.17      23.50
C       4.50      -2.11      24.18
N       4.74      -0.39      22.52
C       0.48     -10.18      23.92
N      -0.82     -12.23      22.51
C       1.21     -11.12      23.18
N       1.65      -5.99      34.39
C       0.52     -12.10      22.48
C      -1.52     -11.33      23.24
C      -0.92     -10.29      23.94
O       1.43      -5.95      29.43
O       2.91      -4.12      25.30
O       0.44      -8.29      25.35
O       2.43      -7.98      29.81
O       1.00      -3.19      24.46
O       2.46      -9.04      24.60
