21

C       3.83       1.43      13.27
H       5.57       1.45      11.88
C       2.40       1.77      11.60
H       4.17       1.26      14.29
C       1.39       1.54      13.85
N       3.61       1.74      11.05
H       1.47       1.95      11.07
C       0.16       1.01      13.44
N       2.48       1.58      12.95
H       0.05       0.58      12.44
C      -0.92       1.01      14.32
H      -1.87       0.59      14.02
C      -0.77       1.52      15.62
C       0.47       2.01      16.03
H       0.59       2.35      17.05
H       2.51       2.44      15.46
O      -3.07       1.13      16.16
C       1.55       2.03      15.15
O      -1.76       2.07      17.72
C      -1.93       1.57      16.56
C       4.51       1.52      12.08
