16

O       7.55       7.73      17.01
O       7.45       9.03      18.89
C       7.43       1.61      22.37
C       7.41       6.55      20.49
C       7.53       2.96      20.15
C       7.49       6.70      19.10
C       7.45       2.82      21.54
Br       7.30       7.92      21.77
C       7.43       5.19      20.87
C       7.51       4.32      19.77
Br       7.64       1.59      18.88
S       7.36       4.35      22.37
C       7.49       7.92      18.28
S       7.57       5.17      18.27
O       7.34       1.80      23.63
O       7.49       0.48      21.77
