26

H       7.71       0.54      17.17
H      10.69       3.69      21.19
H      11.21       3.46      23.61
H       8.44       0.19      19.53
H      10.03      -0.56      20.93
O       8.91       3.56      14.95
H      10.46      -0.76      23.37
O       7.66       1.66      15.00
H      11.38       3.31      19.06
H      10.57       3.69      16.72
O      11.80       2.13      25.66
O      10.82       0.08      25.64
C       9.10       2.14      16.82
C       8.52       1.13      17.60
C       8.94       0.93      18.91
C       9.95       1.73      19.46
C       8.54       2.48      15.49
C      10.56       2.71      18.65
C      10.13       2.92      17.35
C      10.67       2.71      21.66
C      10.94       2.59      23.01
C      10.50       0.21      22.88
C      10.26       0.33      21.52
C      10.31       1.59      20.89
C      10.83       1.34      23.64
C      11.15       1.17      25.08
