51

C      12.30      19.31      22.13
C      12.72      20.41      23.03
O      20.92      19.62      21.13
H      10.78      20.61      23.94
C      11.81      20.96      23.95
O      19.49      18.21      22.06
C      12.23      21.91      24.87
H      11.52      22.33      25.59
O      11.11      18.87      22.24
C      13.57      22.33      24.90
H      15.52      22.13      23.97
H      14.75      20.44      22.33
C      14.48      21.81      23.96
C      14.04      20.86      23.04
H      13.62      25.92      28.46
C      15.12      23.81      26.23
O      11.47      28.23      32.16
H      12.09      26.89      30.17
C      17.35      24.02      26.02
H      15.42      28.89      32.02
C      16.23      25.34      27.47
H      16.93      27.97      30.33
C      15.37      26.87      29.28
H      17.41      21.19      25.43
C      14.00      26.59      29.23
H      18.07      19.33      23.92
C      13.15      27.13      30.19
H      20.90      21.89      21.95
H      20.25      23.78      23.46
C      13.64      27.94      31.22
C      15.01      28.26      31.24
C      15.86      27.74      30.28
N      13.92      23.27      25.88
C      12.73      28.36      32.30
N      16.24      23.36      25.65
C      19.98      19.40      21.96
N      17.42      25.02      26.91
C      18.80      22.60      24.56
N      15.05      24.78      27.17
C      18.18      21.35      24.67
N      16.32      26.33      28.41
C      18.54      20.31      23.83
N      18.54      23.67      25.43
C      19.53      20.50      22.85
C      20.14      21.76      22.72
C      19.78      22.80      23.57
H      13.15      23.64      26.43
H      17.28      26.63      28.55
O      13.15      18.83      21.30
H      19.29      24.33      25.60
O      13.19      28.80      33.43
