20

C       3.21       9.60       3.79
H       3.20      12.53       1.33
H       2.09       8.48       2.36
H       1.62      11.36      -2.84
H       3.00      11.66      -0.80
H       0.21       9.05       1.26
H      -1.01       8.82      -0.91
H       4.36      12.67       3.53
H       3.24       8.81       4.54
N       0.25      10.08      -1.95
N       3.83      10.75       4.12
C       3.18      11.67       2.00
C       2.50      10.49       1.66
C       2.55       9.44       2.58
C       1.35      10.86      -1.91
C       2.11      11.03      -0.76
C       1.74      10.36       0.41
C       0.59       9.55       0.37
C      -0.11       9.44      -0.83
C       3.83      11.76       3.23
