36

O       7.80      11.35      16.22
O       7.80      10.27      18.23
C       7.24      10.81      17.23
O      -7.80      10.27      16.22
C      -7.24      10.81      17.23
O      -7.80      11.35      18.23
F       5.64      13.02      16.31
F       2.96      13.00      16.30
F       5.64       8.60      18.14
F       2.96       8.62      18.15
F       1.35      10.81      14.85
F      -1.35      10.80      14.85
F       1.35      10.80      19.60
F      -1.35      10.81      19.60
F      -2.96       8.62      16.30
F      -5.64       8.60      16.31
F      -2.96      13.00      18.15
F      -5.64      13.02      18.14
C       5.74      10.81      17.23
C       5.01       9.71      17.71
C       3.62       9.71      17.71
C       5.01      11.91      16.75
C       3.62      11.90      16.75
C       2.89      10.81      17.23
C       1.42      10.81      17.23
C       0.70      10.81      16.03
C       0.70      10.80      18.43
C      -5.74      10.81      17.23
C      -5.01      11.91      17.71
C      -3.62      11.90      17.71
C      -5.01       9.71      16.75
C      -3.62       9.71      16.75
C      -2.89      10.81      17.23
C      -1.42      10.81      17.23
C      -0.70      10.81      18.43
C      -0.70      10.80      16.03
