16

C       4.64       9.48      10.76
C       4.79      12.29      10.83
H       6.91      12.03      11.11
C       5.96      11.53      10.96
C       3.57      11.65      10.61
C       5.87      10.14      10.91
H       6.77       9.53      11.01
C       3.49      10.26      10.58
H       2.67      12.25      10.46
Cl       1.93       9.58      10.25
O       5.96      14.35      11.10
O       3.70      14.38      10.85
O       3.63       7.40      11.34
O       5.73       7.40      10.50
C       4.83      13.78      10.94
C       4.66       7.99      10.86
