28

C       3.27       1.25       1.59
C       3.37      -1.25      -1.59
C       3.30       0.38       0.48
C       3.33      -0.38      -0.48
O       2.05       4.13       5.51
O       4.59      -4.13      -5.51
H       1.22       0.79       2.10
H       5.42      -0.79      -2.10
O       4.32       4.21       5.49
O       2.32      -4.20      -5.49
H       1.17       2.33       4.07
H       5.47      -2.33      -4.07
H       5.26       3.40       3.36
H       1.37      -3.40      -3.36
H       5.31       1.93       1.34
H       1.33      -1.92      -1.34
C       3.19       3.83       5.03
C       3.44      -3.83      -5.03
C       2.10       1.37       2.37
C       4.54      -1.37      -2.37
C       2.07       2.22       3.47
C       4.57      -2.22      -3.47
C       3.21       2.95       3.83
C       3.42      -2.95      -3.83
C       4.38       2.83       3.06
C       2.25      -2.83      -3.07
C       4.41       2.00       1.95
C       2.23      -2.00      -1.95
