50

H       6.29       3.49      22.38
H       8.48       9.74      25.17
H       9.47       6.91      16.15
H       9.59       6.22      31.36
H       6.31       3.37      24.91
H       8.46       9.85      22.64
H       9.50       6.79      18.65
H       9.57       6.34      28.85
H       5.18       7.00      16.19
H       5.30       6.31      31.40
H       5.20       6.88      18.70
H       5.27       6.43      28.90
C       8.56       6.84      18.11
C       8.64       6.33      29.42
C       8.54       6.91      16.72
C       8.65       6.26      30.81
C       7.33       6.97      16.03
C       7.44       6.25      31.53
C       6.12       6.96      16.74
C       6.23       6.32      30.84
C       6.13       6.89      18.13
C       6.21       6.39      29.45
C       7.35       6.83      18.80
C       7.42       6.39      28.75
C       7.30       7.05      14.53
C       7.47       6.17      33.02
C       7.81       7.67      26.71
C       6.96       5.55      20.84
C       7.00       5.29      26.61
C       7.76       7.93      20.94
C       7.00       5.38      25.13
C       7.77       7.84      22.42
C       7.39       6.58      24.49
C       7.38       6.64      23.06
C       7.79       7.72      25.23
C       6.97       5.51      22.32
C       6.61       4.28      24.38
C       8.16       8.94      23.17
C       6.59       4.34      22.98
C       8.17       8.88      24.57
N       7.41       6.46      27.31
N       7.36       6.77      20.25
O       8.42       7.06      13.92
O       6.35       6.16      33.63
O       8.62       6.11      33.57
O       6.15       7.11      13.98
O       8.15       8.63      27.40
O       6.62       4.59      20.15
O       6.68       4.28      27.22
O       8.08       8.95      20.33
