28

C      17.39       6.20       8.69
C      18.42       5.50       9.24
C      19.18       8.73       6.55
C      18.15       9.46       6.01
C      16.80       9.13       6.32
C      16.53       8.03       7.19
C      15.70       9.84       5.77
H      18.22       4.67       9.93
H      14.88       6.89       8.07
C      15.18       7.72       7.43
H      18.35      10.28       5.33
C      14.42       9.45       6.07
H      13.54       9.96       5.67
H      20.69       4.30      10.19
H      23.03       5.05       9.65
H      16.37       5.93       8.95
H      20.20       9.00       6.28
H      15.88      10.69       5.11
H      21.69       8.02       7.13
N      22.40       6.58       8.39
N      14.17       8.39       6.88
C      20.87       5.14       9.51
C      22.15       5.54       9.22
C      21.39       7.22       7.81
C      20.04       6.91       8.05
C      19.77       5.83       8.94
C      18.95       7.65       7.45
C      17.62       7.29       7.78
