16

Cl      10.08      13.70      23.19
O       3.92      17.66      23.22
O      12.61      15.32      23.19
C       8.31      15.78      23.20
C       4.50      16.52      23.21
C      12.00      16.45      23.19
O      12.56      17.61      23.21
S       9.71      17.97      23.20
O       3.92      15.38      23.21
S       6.79      14.97      23.20
C       9.66      15.35      23.19
C       6.82      17.60      23.21
C      10.54      16.43      23.19
C       5.97      16.51      23.20
C       8.17      17.18      23.21
H       6.46      18.62      23.22
