20

C       5.42      10.19       7.30
H       6.52      10.24       5.46
H       7.51       9.89       6.89
H       6.46       8.62       6.23
O       3.04      14.45       7.42
H       2.22      12.36       6.21
H       2.78      10.71       6.65
H       2.05      11.79       7.87
O       5.26      14.31       7.86
O       3.54       7.37       8.43
O       5.77       7.32       8.03
H       3.84       9.88       8.66
H       6.14      12.23       7.45
C       4.13      13.80       7.53
C       4.63       9.40       8.08
C       5.22      11.63       7.35
C       4.06      12.32       7.29
C       4.66       7.93       8.19
C       6.53       9.70       6.42
C       2.71      11.75       6.99
