15

C       9.57       4.54       4.36
H       6.96       6.71       6.08
C       8.24       4.06       4.36
C       7.68       6.09       5.55
H      10.87       6.20       4.85
C       8.02       2.75       3.65
O       5.01       5.48       5.33
H      10.35       3.94       3.90
O       7.83       1.70       4.37
C       5.80       4.55       4.98
O       8.14       2.78       2.40
C       7.27       4.88       4.97
O       5.44       3.38       4.63
N       8.94       6.55       5.49
C       9.87       5.77       4.89
