42

H       5.19      12.34      30.61
H       5.29      12.23      28.13
H       6.10      13.71      23.97
H       2.49      11.36      23.98
H       2.27      12.16      25.91
H       5.22      13.00      26.07
H      -0.11      13.70      29.93
H       0.71      13.75      31.49
H       0.02      12.24      30.94
H      -0.24      12.68      28.32
H       0.59      11.84      27.02
H       0.59      13.61      27.07
H       1.58      10.54      22.12
H       2.47      10.50      20.58
H       1.38      11.83      20.91
H       7.07      14.46      22.10
H       6.11      14.67      20.61
H       7.10      13.24      20.81
C       4.18      12.66      19.85
C       3.08      12.55      32.16
C       3.06      12.63      30.67
C       4.29      12.45      30.01
C       4.34      12.40      28.63
C       3.16      12.49      27.86
C       1.91      12.67      28.52
C       1.86      12.80      29.93
C       3.21      12.41      26.41
C       4.28      12.66      25.62
C       5.30      13.20      23.43
C       4.27      12.58      24.16
C       3.27      11.91      23.44
C       3.22      11.92      22.05
C       4.25      12.60      21.33
C       5.31      13.22      22.03
C       0.55      13.14      30.60
C       0.65      12.71      27.70
C       2.11      11.16      21.38
C       6.45      13.94      21.35
O       3.04      12.74      19.29
O       5.30      12.64      19.19
O       4.22      12.62      32.76
O       1.98      12.37      32.77
