22

C       4.79       7.72      16.89
C       2.59       4.97      17.80
C       3.81       8.62      17.34
C       3.58       4.08      17.35
C       3.04       6.30      17.62
C       4.32       6.40      17.05
C       6.13       7.90      16.25
C       1.26       4.74      18.44
S       2.37       7.85      17.94
S       5.01       4.87      16.74
H       6.05       9.79      16.60
O       4.82       2.12      17.17
O       2.60       1.90      17.56
H       1.43       2.84      18.13
C       3.67       2.62      17.36
O       2.73      10.71      17.56
C       3.85      10.09      17.38
O       4.96      10.70      17.24
O       6.66       9.12      16.15
O       6.72       6.90      15.83
O       0.79       3.49      18.54
O       0.62       5.70      18.86
