48

C       4.29       1.94      18.33
C       2.93       2.10      18.91
C       2.62       1.49      20.14
C       1.41       1.74      20.76
C       0.47       2.62      20.18
C       0.77       3.21      18.94
C       1.99       2.95      18.30
C      -0.79       2.92      20.89
H       3.35       0.83      20.59
H       1.18       1.25      21.70
H       0.08       3.92      18.49
H       2.23       3.43      17.36
C      -0.81       2.99      22.29
C      -1.99       3.13      20.19
H       0.13       2.87      22.84
C      -1.99       3.26      22.99
H      -1.99       3.07      19.10
C      -2.77       4.24      26.57
H      -3.30       5.00      24.62
C      -3.19       3.40      20.87
C      -2.00       3.28      24.47
H      -4.10       3.62      22.81
C      -1.27       2.33      25.20
C      -2.75       4.24      25.18
C      -4.47       3.54      20.14
C      -4.75       2.77      18.99
C      -5.47       4.41      20.61
H      -3.99       2.08      18.62
C      -5.99       2.83      18.37
H      -5.27       5.04      21.48
C      -6.72       4.47      19.99
C      -6.99       3.67      18.87
C      -8.37       3.65      18.30
C      -2.11       3.25      28.78
H      -6.21       2.21      17.50
H      -7.50       5.13      20.37
C      -3.17       3.47      22.27
O       4.52       2.49      17.19
O       5.13       1.28      19.02
O      -8.58       2.88      17.30
O      -9.25       4.37      18.88
O      -1.69       2.19      29.35
O      -2.58       4.29      29.36
H      -0.69       1.56      24.68
C      -1.31       2.31      26.59
H      -0.76       1.55      27.14
C      -2.06       3.27      27.29
H      -3.34       5.00      27.11
