40

H      18.67       8.99      20.48
H      20.52       9.63      18.92
H      17.63      11.35      16.23
H      15.79      10.59      17.72
H      21.26      10.51      16.94
H      20.24      12.84      17.26
H      21.55      14.71      16.68
H      23.37      15.62      15.24
H      23.11      12.14      12.73
H      20.81      10.79      13.13
H      23.25       9.72      13.76
H      22.28       7.57      14.86
H      20.16       8.33      16.24
H      19.63       8.17      14.57
H      19.14      10.51      14.75
N      20.36      12.35      16.38
O      16.31       9.16      21.32
C      16.02       9.29      20.08
C      17.12       9.74      19.19
C      18.45       9.49      19.54
C      19.48       9.86      18.67
O      14.89       9.06      19.54
C      17.86      10.81      17.14
C      16.83      10.40      17.98
C      19.19      10.52      17.46
C      20.31      10.89      16.52
C      21.36      12.87      15.56
C      21.90      14.14      15.82
C      22.91      14.65      15.02
C      22.77      12.68      13.62
C      21.81      12.12      14.45
C      21.24      10.75      14.15
C      23.35      13.93      13.90
C      22.25       9.62      14.19
C      20.33       8.71      15.22
C      20.14      10.25      15.13
C      24.43      14.47      13.03
C      21.75       8.52      14.76
O      24.50      14.03      11.83
O      25.20      15.34      13.55
