26

C      -4.98       3.20       5.20
C      -6.08       2.57       4.30
H      -4.40       2.96       1.30
C      -3.73       3.92       3.16
O      -6.43       0.26       1.76
H      -6.87       3.30       4.08
O      -2.73       5.02       5.68
H      -3.96       4.97       3.38
O      -1.56       3.07       5.72
O      -7.52       2.26       1.77
H      -5.61       4.02       2.03
H      -2.29       1.63       3.69
H      -3.17       1.12       5.12
H      -5.21       4.25       5.43
H      -4.91       2.67       6.16
H      -6.55       1.72       4.82
H      -4.82       0.17       3.77
H      -3.94       0.68       2.34
H      -2.76       3.91       2.64
C      -3.27       1.68       4.18
C      -3.61       3.14       4.48
C      -2.55       3.79       5.36
C      -5.46       2.08       2.97
C      -4.83       3.29       2.26
C      -4.37       1.05       3.28
C      -6.56       1.48       2.10
