16

H       1.90      20.67       8.56
H       1.90      19.62       3.07
C       1.99      23.40       7.70
C       1.99      16.89       3.93
C       1.93      20.85       7.49
C       1.93      19.43       4.14
C       1.98      22.12       6.95
C       1.98      18.16       4.68
C       2.00      20.41       5.16
C       2.00      19.87       6.47
S       2.07      22.14       5.21
S       2.07      18.15       6.42
O       2.92      24.23       7.43
O       1.06      23.58       8.56
O       2.92      16.06       4.20
O       1.06      16.70       3.07
