42

H       5.83      12.86      14.67
H       4.86      14.85      20.89
H       5.06      13.08      21.03
H       4.03      13.76      19.72
H       5.72      13.88      16.95
H       8.61       5.33      14.11
H       6.45      11.00      13.22
H       7.79       8.19      17.83
H       8.30       6.28      16.38
H       7.35       9.65      12.06
H       7.73       9.82      18.92
H       9.70       6.09       9.94
H       9.87       4.35      10.27
H      10.69       5.54      11.34
C       7.44      11.60      20.73
C       8.00       7.24      15.94
C       7.89       7.93      10.24
C       6.48      11.90      16.51
C       7.01      11.76      19.29
C       7.96       7.66      11.71
C       6.16      12.97      17.37
C       8.31       6.28      13.68
C       6.40      12.93      18.73
C       8.31       6.40      12.30
C       7.27      10.68      18.45
C       7.95       7.35      14.53
C       7.59       8.71      12.55
C       7.01      10.70      17.07
C       7.55       8.60      13.95
C       9.79       5.34      10.73
C       4.94      13.91      20.33
C       7.31       9.57      16.22
C       7.16       9.70      14.81
C       6.62      10.91      14.29
C       7.72       8.31      16.75
C       6.27      11.96      15.10
O       7.35      12.60      21.51
O       6.08      14.05      19.46
O       7.54       6.97       9.48
O       7.88      10.45      21.06
O       8.18       9.11       9.87
O       8.63       5.28      11.58
