34

H      11.82      15.88      10.66
H       5.44      17.23       7.61
H       9.20      13.18       8.23
H       9.14      19.76       7.72
H      13.14      17.88       9.94
H       4.91      15.02       6.58
C       7.86      11.34       7.09
C      10.97      21.50       7.75
C      11.01      16.21      10.01
C       6.43      16.85       7.86
C      11.13      20.11       8.30
C       7.38      12.75       7.25
C      12.24      18.30       9.49
C       5.84      14.61       6.99
C      12.28      19.57       8.93
C       6.14      13.27       6.80
C       9.98      19.33       8.26
C       8.23      13.60       7.95
C       9.89      18.06       8.84
C       7.93      14.94       8.22
C      11.06      17.53       9.45
C       6.72      15.47       7.68
C       8.71      17.23       8.69
C       8.86      15.83       8.89
C       9.95      15.40       9.73
C       7.40      17.70       8.34
I       4.72      12.14       5.71
I      14.17      20.53       8.91
I       9.79      13.63      10.89
I       6.74      19.64       8.91
O       6.98      10.42       7.06
O      11.73      22.41       8.21
O       9.12      11.17       7.04
O      10.02      21.67       6.92
