40

H       2.42       8.54       4.37
H       0.84       9.64      -5.98
H       1.89      10.90      -5.27
H       7.87       8.38       4.44
H       6.87       8.48       5.94
H       8.30       9.52       5.77
H       6.43      10.30       2.08
H       0.67       9.16       3.02
H       0.26       8.23       1.54
H       1.09       7.42       2.90
H       0.74       9.99      -4.21
C       4.65       9.58      -4.49
C       5.74       9.76      -3.64
C       5.60       9.59      -2.25
C       4.33       9.21      -1.73
C       3.26       8.97      -2.62
C       3.40       9.18      -3.99
C       3.29       9.00       2.45
C       3.30       8.90       3.84
C       4.46       9.51       1.81
C       4.25       9.20       6.10
C       4.41       9.26       4.62
C       5.57       9.74       3.97
C       5.55       9.90       2.59
C       4.74       9.80      -5.98
C       0.99       8.36       2.34
C       1.40       9.93      -5.09
C       7.47       9.05       5.23
I       1.42       8.28      -1.87
I       7.31       9.76      -1.03
I       7.57      10.33      -4.53
N       4.05       8.95      -0.37
N       4.64       9.73       0.44
O       2.22       8.69       1.68
O       2.41       8.91      -4.90
O       6.73      10.12       4.62
O       3.29       8.46       6.54
O       4.24      10.89      -6.41
O       5.04       9.89       6.81
O       5.28       8.88      -6.67
