19

C      30.27      19.46      26.75
C      30.14      18.30      30.20
C      30.21      20.77      27.21
C      30.21      16.99      29.75
C      30.17      19.21      29.12
C      30.25      18.57      27.86
H      30.09      18.56      31.25
C      30.36      19.01      25.32
S      30.12      20.92      28.95
S      30.29      16.86      28.01
H      29.49      19.37      24.75
H      30.40      17.92      25.26
H      31.25      19.43      24.84
C      30.20      22.00      26.42
O      30.11      23.11      27.07
O      30.29      21.88      25.15
C      30.20      15.78      30.57
O      30.13      15.93      31.83
O      30.27      14.66      29.93
