16

C       6.53       0.44      12.17
O       8.69       2.85      16.05
C       7.76      -0.18      12.41
O      10.29       1.49      15.34
H       6.61       2.78      14.65
H       5.14       1.96      12.78
C       8.59       0.30      13.42
O       4.68       0.73      10.69
C       5.68       0.02      11.01
H       8.07      -1.00      11.77
O       5.97      -1.06      10.37
H       9.57      -0.14      13.58
C       9.09       1.94      15.26
C       8.18       1.37      14.23
C       6.91       1.95      14.02
C       6.10       1.49      12.99
