30

H       1.71      10.10       6.29
H       1.71      14.42       7.87
H       2.64      10.41      10.64
H       2.81      10.25       8.19
H       2.64      14.11       3.52
H       2.81      14.27       5.97
O       1.02      12.66       1.54
O       2.94      11.47       1.36
O       1.02      11.86      12.62
O       2.94      13.06      12.79
O       1.14       9.63       2.55
O       1.49       8.62       4.47
O       1.14      14.90      11.61
O       1.49      15.90       9.69
C       2.00      12.01       2.02
C       2.00      12.51      12.14
C       2.10      12.03       3.52
C       2.10      12.50      10.64
C       1.87      10.92       4.34
C       1.95      10.99       5.72
C       1.87      13.61       9.82
C       1.95      13.53       8.44
C       2.44      11.29      10.02
C       2.53      11.20       8.64
C       2.44      13.23       4.14
C       2.53      13.32       5.52
C       2.27      12.21       6.34
C       2.27      12.31       7.82
N       1.48       9.62       3.74
N       1.48      14.90      10.42
