44

H       3.22       5.84       3.11
H       7.36       4.45      -3.12
H       3.53       6.45      -3.04
H       7.09       3.92       3.10
H       7.35       5.37       1.38
H       3.24       4.87      -1.37
H       7.48       5.60      -1.07
H       3.11       4.64       1.08
C       5.10       5.22      -7.22
C       5.56       5.44       7.20
C       4.13       5.46       5.01
C       6.50       4.99      -5.00
C       4.38       6.02      -4.95
C       6.27       4.47       4.99
C       4.08       5.42       3.62
C       6.51       4.92      -3.61
C       4.37       6.00      -3.57
C       6.25       4.39       3.61
C       5.17       4.91       2.89
C       5.43       5.40      -2.87
C       5.25       5.07       5.75
C       5.41       5.47      -5.74
C       6.45       5.24       0.78
C       4.14       5.00      -0.76
C       6.52       5.37      -0.60
C       4.07       4.87       0.62
C       5.37       5.26      -1.40
C       5.22       4.99       1.41
N       2.89       5.98       5.64
N       7.76       4.52      -5.63
N       3.26       6.76      -5.58
N       7.44       3.81       5.63
O       5.99       5.31      -8.10
O       4.63       5.65       8.02
O       6.81       5.56       7.40
O       3.88       4.88      -7.39
O       2.35       5.26       6.49
O       2.44       7.05       5.22
O       8.25       5.25      -6.51
O       8.27       3.49      -5.18
O       3.58       7.64      -6.40
O       2.12       6.51      -5.19
O       7.18       2.89       6.41
O       8.56       4.17       5.26
