26

H       0.12       3.33      11.44
H       0.30       2.96      13.87
H       4.39       4.39      18.20
H       4.32       4.53      15.75
H       0.31       3.05      18.27
H       0.20       3.20      15.82
H       3.93       5.33      11.45
H       4.06       5.10      13.90
C       1.91       4.58       9.83
C       2.40       3.66      19.88
C       2.01       4.37      11.29
C       2.35       3.72      18.40
C       0.99       3.71      11.99
C       1.09       3.52      13.36
C       3.48       4.13      17.67
C       3.42       4.21      16.28
C       1.18       3.38      17.71
C       1.13       3.46      16.32
C       3.13       4.83      12.00
C       3.20       4.68      13.38
C       2.18       4.02      14.10
C       2.25       3.89      15.57
O       0.78       4.40       9.27
O       1.33       3.29      20.48
O       3.50       3.95      20.45
O       2.97       4.96       9.22
