28

H       6.16       6.47      12.68
H       6.03       6.74      15.15
H       9.79       8.87      15.06
H       5.97       7.10      19.52
H       9.52       9.57      21.93
H       9.68       9.31      19.46
C       8.07       7.15      11.01
C       7.62       8.83      23.58
C       8.05       7.45      12.48
C       6.96       6.98      13.22
C       6.88       7.13      14.60
C       7.91       7.80      15.29
C       9.00       8.32      14.55
C       9.07       8.15      13.17
C       7.88       7.95      16.69
C       7.86       8.06      17.91
C       7.81       8.21      19.31
C       6.74       7.66      20.04
C       6.66       7.82      21.42
C       7.66       8.54      22.12
C       8.74       9.04      21.38
C       8.83       8.89      20.01
Cl      10.43       8.87      12.38
Cl       5.31       7.07      22.20
O       6.95       6.86      10.47
O       6.50       8.82      24.18
O       8.74       9.12      24.14
O       9.19       7.16      10.42
