62

C      12.64       2.37       2.52
C      13.33       1.67       1.78
C      22.75       3.78      -3.97
C      21.98       3.12      -3.28
C      21.18       2.37      -2.50
C      20.49       1.67      -1.76
C      11.01      -3.75      -3.98
C      11.79      -3.10      -3.29
C      12.60      -2.35      -2.51
C      13.30      -1.66      -1.78
C      22.76      -3.76       4.00
C      21.98      -3.10       3.31
H       9.72       6.37       3.56
H       9.72       3.28       6.59
C      20.48      -1.66       1.79
C      21.18      -2.35       2.52
H      24.14       6.36      -3.52
H      24.12       3.27      -6.56
H       9.62      -6.32      -3.51
H       9.66      -3.25      -6.57
H      24.13      -6.34       3.54
H      24.14      -3.25       6.58
H      15.99      -1.47      -1.58
H      16.01       1.46       1.57
H      17.80       1.46      -1.58
H      17.80      -1.48       1.57
N       8.65       5.09       6.33
N       8.65       6.07       5.36
H      12.26       0.01       0.01
H      21.54       0.02       0.02
N      25.19       5.08      -6.30
N      25.19       6.06      -5.34
C       9.55       5.74       4.42
C      10.16       4.52       4.76
C       9.55       4.15       5.98
N       8.58      -5.06      -6.31
N       8.57      -6.04      -5.33
C      24.30       5.73      -4.39
C      23.69       4.50      -4.72
C      24.29       4.15      -5.95
N      25.20      -6.04       5.35
N      25.20      -5.06       6.31
C       9.46      -5.70      -4.39
C      10.08      -4.48      -4.72
C       9.48      -4.12      -5.95
C      24.30      -5.71       4.41
C      23.69      -4.48       4.74
C      24.30      -4.13       5.97
C      15.45      -0.83      -0.89
C      16.15      -0.01      -0.01
C      15.46       0.82       0.88
C      14.05       0.83       0.90
C      13.35       0.00       0.00
C      14.04      -0.83      -0.89
C      17.65      -0.01      -0.00
C      18.35       0.82      -0.89
C      19.76       0.84      -0.88
C      20.45       0.01       0.02
C      19.76      -0.83       0.90
C      18.34      -0.83       0.89
C      11.09       3.79       4.01
C      11.85       3.12       3.31
