17

O      18.62       8.69       3.08
C      18.43      14.71       1.99
H      18.59       8.98       2.16
C      18.53       9.76       3.91
O      18.49      14.55       0.72
O      18.66       7.33       5.52
O      18.37      15.81       2.63
O      18.35       8.62       7.39
C      18.36      13.37       4.17
S      18.35      11.20       6.10
S      18.53      11.94       1.98
C      18.49       8.45       6.12
C      18.47       9.65       5.30
C      18.42      13.48       2.80
C      18.39      12.02       4.58
C      18.48      11.12       3.50
H      18.29      14.24       4.82
