42

H       0.75      -1.17       6.48
C       2.04      -2.23       3.98
C       2.66      -3.02       2.99
C       3.49      -2.46       2.02
C       3.73      -1.08       1.99
C       3.17      -0.29       3.02
C       2.34      -0.85       3.98
C       4.67       1.31      -1.75
C       4.51       1.99      -2.95
C       4.06      -0.09      -4.08
C       0.43      -4.03       4.92
C       4.21      -0.77      -2.88
C       3.31       3.43      -5.34
C       4.45      -0.09      -1.67
C       4.39      -0.39       0.87
C       4.25      -0.81      -0.42
C       4.13       1.32      -4.13
C       1.08      -2.78       4.93
H       3.46       4.22      -4.61
H       2.49      -4.10       2.98
H       4.61       3.07      -2.95
H       3.82      -0.65      -4.99
C       3.19       1.57      -6.53
C       6.04       0.83       2.06
N      -0.35      -2.96       6.67
H       3.34       0.79       3.01
H       1.88      -0.20       4.72
H       3.94      -3.11       1.27
H       3.75      -1.77      -0.54
H       4.90       1.86      -0.84
N      -0.42      -4.13       5.95
H       3.24       0.56      -6.94
H       0.52      -4.85       4.21
N       2.67       3.70      -6.50
N       2.60       2.56      -7.22
H       4.08      -1.85      -2.86
O       4.94       0.85       1.14
H       6.91       0.33       1.60
H       5.77       0.31       3.00
H       6.28       1.87       2.27
C       0.54      -2.15       6.07
C       3.65       2.07      -5.29
