15

N      12.33       7.45       1.75
N      11.64       8.50       2.13
H      10.08      10.48       2.49
H       8.42      11.89       3.74
C       8.68       9.41       5.89
C       9.60       8.58       5.26
C      10.13       8.95       4.01
C       9.70      10.17       3.46
C       8.77      10.94       4.14
C      11.06       8.11       3.28
H       8.28       9.18       6.87
N      12.19       6.44       2.62
N       8.26      10.57       5.33
N      11.39       6.84       3.60
H       9.91       7.65       5.74
