20

H       3.76      12.86      21.62
H       3.95      11.92      25.65
H       6.22      12.62      21.34
H       6.43      11.66      25.57
C       4.40      12.61      22.47
H       8.28      13.60      21.89
C       4.50      12.07      24.72
H       8.18      10.39      24.78
C       5.77      12.48      22.33
H      10.77      13.38      21.87
C       5.88      11.92      24.66
H      10.67      10.29      24.63
C       6.55      12.14      23.44
C       8.01      12.01      23.35
C       8.76      12.85      22.51
C       8.71      11.08      24.13
C      10.14      12.74      22.49
C      10.10      11.02      24.05
N       3.77      12.41      23.64
N      10.80      11.84      23.26
