51

C      16.24      14.12      13.22
O      20.63      16.55      18.36
C      16.94      15.60      15.13
C      16.41      16.48      16.10
C      17.20      16.93      17.16
C      18.54      16.51      17.26
O      18.93      17.39      19.50
O      12.26       8.00       6.73
C      19.07      15.69      16.26
C      18.30      15.24      15.21
O      20.15       7.43       7.75
C      19.40      16.84      18.41
C      17.47      12.56      12.16
C      19.18      11.01      11.13
C      20.51      10.57      11.35
C      21.05       9.58      10.56
C      20.30       9.01       9.52
C      19.00       9.48       9.28
H      14.87       8.03       9.73
C      18.44      10.47      10.07
H      15.39      10.00      11.15
C      20.86       7.89       8.72
H      12.55      12.35       8.90
H      12.05      10.36       7.48
H      15.36      16.77      16.06
H      16.75      17.56      17.92
H      20.11      15.38      16.34
H      18.71      14.57      14.46
N      14.18      12.42      10.95
H      21.09      11.01      12.16
O      22.00       7.42       9.02
N      15.12      13.81      12.53
H      22.07       9.22      10.73
C      13.08       7.89       7.70
N      17.43      13.54      13.08
H      18.43       9.04       8.46
C      12.78      10.29       8.29
C      13.43       9.07       8.52
N      16.43      12.12      11.44
O      13.56       6.72       8.00
H      17.42      10.81       9.89
C      14.37       8.98       9.55
N      18.71      12.00      12.00
C      14.65      10.08      10.35
N      16.07      15.12      14.15
C      13.99      11.30      10.13
C      13.05      11.40       9.08
H      13.40      13.08      11.04
C      15.29      12.79      11.67
H      19.39      12.39      12.64
H      15.11      15.45      14.20
