22

N      11.93       8.52      31.87
N      21.56       9.05      31.69
Cl      11.90       6.45      33.49
Cl      21.61      11.05      30.00
H      11.88      10.17      30.62
H      14.37      10.39      30.48
H      14.65       6.97      33.12
H      18.86      10.53      30.32
H      21.58       7.45      33.01
H      19.08       7.24      33.13
C      12.54       9.48      31.15
C      13.92       9.60      31.08
C      14.72       8.69      31.79
C      14.08       7.69      32.55
C      12.69       7.65      32.56
C      16.13       8.76      31.76
C      17.35       8.81      31.75
C      18.76       8.88      31.73
C      19.42       9.84      30.94
C      20.81       9.88      30.96
C      20.93       8.12      32.45
C      19.55       8.00      32.50
