26

O      29.55      13.55      13.27
H      29.16      17.46      12.76
H      27.69      12.66      10.91
H      26.63      12.78      12.34
H      25.90      13.77       9.51
H      24.86      13.90      10.95
H      28.06      19.27       9.37
H      28.42      20.68      10.40
H      29.43      19.21      10.51
H      26.47      19.42      11.31
H      27.83      19.35      12.44
C      25.48      17.26       9.80
C      26.55      15.33      10.95
C      26.49      16.71      10.76
C      27.44      17.50      11.47
C      28.42      16.85      12.24
C      28.51      15.45      12.37
C      27.53      14.71      11.73
C      27.00      13.32      11.46
C      25.89      14.02      10.58
C      29.61      14.82      13.15
C      27.47      19.01      11.45
C      28.40      19.58      10.37
O      30.52      15.58      13.61
O      25.65      18.44       9.35
O      24.53      16.46       9.47
