20

H       0.83       9.80      10.14
H       4.13      10.80       7.53
H       4.85       0.27      10.73
H       7.92       1.39       7.89
C       1.50      10.22       9.40
C       3.20      10.74       8.07
C       5.87       2.78       9.54
C       5.51       3.95       9.65
C       5.06       5.21       9.72
C       4.61       6.37       9.73
C       4.06       7.59       9.65
C       3.51       8.67       9.47
C       2.82       9.82       9.07
C       5.66       0.31      10.01
C       7.23       0.88       8.55
N       1.13      11.26       8.62
N       2.18      11.57       7.81
C       6.24       1.44       9.39
N       6.26      -0.81       9.58
N       7.23      -0.45       8.67
