84

H       5.39       2.37       1.18
H      -0.13       9.34      -1.18
H       6.30       7.35      -2.41
H      -1.03       4.36       2.41
H       2.99       6.35      -5.65
H       2.28       5.35       5.65
H       1.47       2.86      -0.64
H       3.79       8.84       0.64
H       5.85      10.35      -6.34
H      -0.59       1.36       6.34
H       0.86      -1.90      -0.42
H       4.41      13.61       0.42
H       4.82       0.17       1.75
H       0.45      11.53      -1.75
H       5.73       9.28      -4.09
H      -0.47       2.43       4.09
H       4.43      -2.28       1.91
H       0.83      13.98      -1.91
H       3.11       7.45      -7.89
H       2.16       4.26       7.89
H       1.23       0.54      -0.64
H       4.03      11.17       0.64
H       1.68       5.29      -1.09
H       3.58       6.42       1.09
H       2.14       6.28      -3.20
H       3.12       5.42       3.20
C       4.62       9.58      -8.61
C       0.64       2.12       8.61
C       2.45      -3.73       0.75
C       2.82      15.43      -0.75
C       4.49       8.96      -7.25
C       0.77       2.74       7.25
C       4.48       2.70       0.71
C       0.79       9.00      -0.71
C       4.26       7.10      -3.40
C       1.00       4.60       3.40
C       5.26       7.01      -2.40
C      -0.00       4.69       2.40
C       4.35       7.74      -4.71
C       0.91       3.97       4.71
C       3.61       7.24      -5.80
C       1.66       4.47       5.80
C       2.48       2.92      -0.24
C       2.78       8.79       0.24
C       5.23       9.47      -6.17
C       0.03       2.24       6.17
C       3.31       1.97       0.36
C       1.95       9.74      -0.36
C       1.71      -1.43       0.06
C       3.55      13.14      -0.06
C       3.94      -0.27       1.27
C       1.32      11.98      -1.27
C       5.16       8.87      -4.92
C       0.10       2.84       4.92
C       3.73      -1.64       1.37
C       1.53      13.35      -1.37
C       2.62      -2.24       0.76
C       2.64      13.95      -0.76
C       3.05       0.54       0.54
C       2.21      11.16      -0.54
C       3.67       7.84      -7.05
C       1.59       3.86       7.05
C       1.93      -0.06      -0.06
C       3.33      11.77       0.06
C       2.67       5.40      -0.63
C       2.59       6.31       0.63
C       3.16       6.45      -2.86
C       2.10       5.26       2.86
N       3.15       4.09      -0.24
N       2.11       7.61       0.24
N       4.37       3.98       0.35
N       0.89       7.72      -0.35
N       4.80       6.36      -1.33
N       0.46       5.35       1.33
N       3.52       6.01      -1.63
N       1.74       5.69       1.63
O       3.83       9.14      -9.53
O       1.43       2.57       9.53
O       3.44      -4.45       1.11
O       1.82      16.15      -1.11
O       5.51      10.46      -8.82
O      -0.24       1.25       8.82
O       1.32      -4.17       0.35
O       3.94      15.88      -0.35
