14

C       6.06       1.90       1.98
N       8.16       0.99       1.20
H       6.33       3.35       3.63
H      10.64       2.36       2.69
N       9.69       2.04       2.40
H      10.29       0.61       0.94
O       9.32       4.04       4.39
C       9.47       1.12       1.43
O       7.07       3.87       4.19
C       8.47       2.52       2.82
O       5.53       1.19       1.07
C       7.52       1.85       2.06
C       8.30       3.53       3.86
O       5.40       2.63       2.80
