20

H       0.49       5.77      12.89
H       1.75       3.22      13.05
H      -1.73       1.46      12.18
H      -3.00       4.02      12.01
H      -1.68       4.74      14.44
H       0.43       2.50      10.62
C      -0.82       5.25      10.22
C      -0.00       4.81      12.75
C      -1.22       4.25      13.57
C      -0.50       2.85      13.64
C       0.70       3.40      12.81
C      -0.03       2.98      11.49
C      -1.25       2.43      12.31
C      -1.95       3.83      12.25
C      -0.75       4.39      11.42
C      -0.45       2.00      14.85
O       0.30       5.52       9.66
O      -1.97       5.66       9.85
O      -1.58       1.76      15.41
O       0.68       1.56      15.23
