27

H       1.29       0.74       2.79
H       2.36       4.90       2.89
C       0.46       3.21       2.03
H       3.34       0.17       4.11
C       1.70       2.86       2.78
H       4.44       4.33       4.19
C       1.98       1.52       3.10
H       7.01       1.62       6.68
O      -0.31       2.25       1.69
C       2.59       3.87       3.16
H       2.79       2.39       6.35
O       0.26       4.45       1.79
H       6.83       1.75       9.17
O       5.09       1.92       5.01
C       3.12       1.20       3.83
H       2.62       2.50       8.83
C       3.74       3.56       3.88
O       5.69       2.06      11.32
C       3.97       2.23       4.22
O       3.46       2.25      11.20
C       4.91       1.99       6.37
C       6.05       1.81       7.16
C       3.67       2.24       6.97
C       5.95       1.88       8.54
C       3.58       2.31       8.35
C       4.71       2.12       9.16
C       4.59       2.16      10.64
