20

C       2.35      13.63       6.91
C       2.41      15.01       6.98
C       2.26      15.78       5.81
C       2.09      15.07       4.61
C       2.06      13.68       4.61
C       2.10      19.37       7.04
H       2.44      13.01       7.80
C       2.10      17.98       7.05
H       2.59      15.47       7.95
H       1.96      15.59       3.67
C       2.27      17.26       5.85
H       1.91      13.12       3.70
C       2.44      18.03       4.69
H       1.95      19.93       7.96
C       2.43      19.42       4.76
H       1.94      17.46       7.99
H       2.61      17.56       3.72
H       2.57      20.05       3.88
N       2.16      12.96       5.75
N       2.25      20.09       5.92
