13

C       6.56       7.36      26.84
H       6.85       5.90      23.77
N       5.61       7.52      24.20
C       7.02       6.48      25.85
H       4.43       9.10      24.83
C       6.52       6.58      24.56
H       5.20       9.01      27.20
C       5.17       8.37      25.15
C       5.61       8.32      26.47
C       7.12       7.35      28.23
O       6.42       7.81      29.19
O       8.32       6.96      28.40
H       7.77       5.72      26.08
