16

O      18.57       7.32       5.51
O      18.41      15.83       2.63
O      18.40       8.60       7.40
C      18.42      13.35       4.19
C      18.48       9.65       5.32
C      18.55       9.79       3.94
C      18.44      12.01       4.61
C      18.53      11.13       3.52
C      18.49       8.43       6.13
S      18.39      11.19       6.13
S      18.58      11.95       2.00
C      18.49      13.49       2.81
F      18.62       8.76       3.08
F      18.35      14.38       5.06
C      18.49      14.72       2.00
O      18.57      14.55       0.74
