26

O      14.01       2.96       6.91
O      14.27       2.77       4.68
O      22.93      -3.81       8.54
O      23.40      -3.61       6.33
H      16.11       2.33       8.13
H      18.09       0.89       8.51
H      17.60      -0.82       4.59
H      15.70       0.74       4.16
H      21.73      -2.36       5.03
H      19.75      -0.91       4.70
H      18.89      -1.14       8.92
H      20.92      -2.55       9.24
C      14.62       2.52       5.85
C      16.45       1.65       7.35
C      17.55       0.82       7.57
C      17.99      -0.07       6.57
C      17.30      -0.10       5.35
C      16.23       0.75       5.11
C      15.79       1.63       6.11
C      21.45      -2.54       7.16
C      21.10      -2.09       5.88
C      19.99      -1.29       5.70
C      19.17      -0.93       6.78
C      19.52      -1.39       8.06
C      20.65      -2.19       8.25
C      22.67      -3.38       7.39
