64

H      19.28       8.68      13.04
H      24.38      13.15      13.04
H      19.60       8.36      14.96
H      24.07      13.47      14.96
H      19.26       8.76      10.56
H      24.40      13.07      10.56
H      19.68       8.34      17.44
H      23.99      13.49      17.44
H      21.35      13.01       6.73
H      22.31       8.82       6.73
H      19.74      11.39      21.28
H      23.93      10.44      21.28
H      21.35      13.01       4.22
H      22.31       8.82       4.22
H      19.74      11.39      23.78
H      23.93      10.43      23.78
C      21.83      10.92       6.86
C      20.65      11.18      21.83
C      23.02      10.64      21.83
C      21.56      12.10       4.78
C      22.10       9.73       4.78
C      20.65      11.18      23.22
C      23.02      10.64      23.22
C      21.83      10.92      15.43
C      21.83      10.92       4.08
C      21.84      10.91      23.93
C      21.84      10.91      12.57
C      20.01       9.31      12.53
C      21.83      10.92       2.58
C      21.84      10.91      25.42
C      23.66      12.52      12.53
C      20.92      10.06      13.27
C      22.74      11.77      13.27
C      20.98      10.00      14.73
C      22.68      11.83      14.73
C      20.23       9.09      15.47
C      23.44      12.74      15.47
C      19.99       9.34      11.13
C      23.68      12.49      11.13
C      20.26       9.07      16.87
C      21.84      10.91      21.14
C      23.40      12.76      16.87
C      20.90      10.12      10.43
C      22.77      11.70      10.43
C      21.04       9.98      17.57
C      22.62      11.85      17.57
C      21.84      10.91      11.14
C      21.83      10.92      16.86
C      20.86      10.13       8.96
C      22.81      11.70       8.96
C      21.04       9.94      19.05
C      22.62      11.89      19.05
C      21.56      12.10       6.17
C      22.10       9.73       6.17
N      21.83      10.92       8.30
N      21.83      10.91      19.70
O      21.55      12.02       2.00
O      22.11       9.81       2.00
O      20.73      11.19      26.01
O      22.94      10.63      26.01
O      20.03       9.49       8.31
O      23.63      12.35       8.31
O      20.41       9.11      19.69
O      23.26      12.72      19.69
