37

Si      10.86      21.59       0.03
H       7.56      20.59       4.30
H       7.78      17.27       1.53
H       7.54      22.64      -4.22
H       7.82      25.96      -1.43
H      14.14      20.57      -4.25
H      13.97      17.27      -1.44
H      14.09      22.79       4.33
H      14.22      25.79       1.20
C       7.45      19.66       3.75
C       8.11      19.23       2.58
C       7.56      17.96       2.33
C       7.44      23.58      -3.67
C       8.11      23.99      -2.50
C       7.59      25.27      -2.24
C      14.26      19.65      -3.69
C      13.62      19.22      -2.51
C      14.18      17.96      -2.26
C      14.29      23.64       3.69
C      13.71      23.99       2.45
C      14.36      25.18       2.08
C       9.04      19.94       1.81
C       9.82      20.57       1.11
C      12.74      23.27       1.72
C      11.93      22.64       1.06
C       9.03      23.27      -1.72
C       9.81      22.63      -1.02
C      12.68      19.92      -1.74
C      11.90      20.55      -1.03
N       6.65      17.66       3.28
N       6.58      18.72       4.16
N       6.68      25.59      -3.19
N       6.59      24.54      -4.07
N      15.09      17.66      -3.20
N      15.14      18.71      -4.09
N      15.26      25.51       3.03
N      15.22      24.56       4.02
