40

C       0.68       2.64      11.84
C      -2.78       1.01       7.44
H      -3.58       1.06       6.71
C      -1.71       1.92       9.43
H      -1.71       2.65      10.24
C      -3.79       2.99       8.57
H       0.03      -0.76       8.24
O      -3.64       3.94       9.43
C      -1.76       0.07       7.34
H      -0.69       2.96      14.95
O      -4.80       2.94       7.81
C      -2.73       1.94       8.48
H      -1.16      -0.22      12.07
O       0.32       0.85      10.24
C       0.10       1.41      11.50
H       0.78       4.16      13.36
O      -1.83      -0.82       6.29
C      -0.73       0.02       8.29
H      -1.66       0.74      14.33
O       1.45       4.68      10.87
C      -0.72       0.95       9.33
O      -0.92      -4.85       7.38
C      -0.48       2.52      13.98
C      -0.64      -1.45       5.93
H       1.02      -4.40       6.06
O      -2.35      -3.16       7.61
C      -0.73       0.73      12.38
H       0.02       0.33       4.94
O       2.53       2.82      10.32
C       0.36       3.19      13.09
H       2.66      -3.08       4.72
C      -1.02       1.28      13.63
H       2.16      -0.70       4.15
C      -1.27      -3.64       7.13
C       1.61       3.40      10.95
C      -0.38      -2.79       6.27
C       0.82      -3.35       5.81
C       0.26      -0.71       5.17
C       1.73      -2.62       5.05
C       1.45      -1.29       4.74
