28

C       2.05      30.94      24.23
Br       1.03      39.58      16.21
Br       3.09      42.21      20.77
Br       0.94      36.70      17.90
Br       3.17      33.61      19.68
Br       0.93      36.22      24.20
Br       1.02      33.34      25.89
C       2.06      41.98      17.87
Br       3.17      39.31      22.42
O       1.08      30.16      24.02
Br       3.08      30.71      21.33
O       3.03      30.73      25.02
O       1.08      42.76      18.08
O       3.03      42.19      17.08
C       2.06      40.66      18.62
C       1.60      39.49      18.00
C       1.59      38.28      18.70
C       2.05      38.21      20.04
C       2.52      39.40      20.65
C       2.51      40.61      19.95
C       2.05      36.99      20.75
C       2.05      35.93      21.35
C       2.05      34.71      22.06
C       2.52      33.52      21.45
C       2.50      32.31      22.15
C       2.05      32.26      23.48
C       1.60      33.43      24.10
C       1.59      34.64      23.40
