15

C       3.48      12.92       5.51
H       3.72      10.38       4.24
O       2.42      10.48       7.21
H       4.58       9.62       5.59
C       3.90      14.25       6.09
H       4.66      11.72       6.86
H       5.40      11.92       5.27
O       1.64       9.53       5.30
H       3.29      13.05       4.44
C       4.44      11.76       5.78
C       2.54      10.11       6.00
H       2.51      12.69       6.00
O       3.66      15.28       5.38
C       3.87      10.42       5.33
O       4.43      14.25       7.25
