19

C       8.58       9.39      15.56
H      12.09       8.17      11.91
N       5.69       9.71      13.24
H       4.98       9.60      13.96
C       9.37       9.20      13.29
C      10.43       8.99      12.29
H       5.44       9.14      12.41
O       7.77       9.64      17.77
O       9.98       9.28      17.49
C       7.00       9.55      13.71
O      11.59       8.52      12.74
H       7.90       9.46      11.74
O      10.23       9.19      11.07
H      10.62       8.95      15.05
C       8.07       9.41      12.81
H       6.47       9.73      15.80
C       9.63       9.16      14.67
C       7.28       9.58      15.08
C       8.80       9.44      17.05
