30

N      18.55      10.01       4.25
N      19.41       9.02      -4.26
H      19.62       8.93       2.20
H      18.35      10.10      -2.20
H      21.93       6.91      -0.94
O      16.83      11.92       4.80
H      16.31      12.40       0.93
O      21.32       7.30      -4.80
H      17.51      11.19      -0.84
O      15.70      13.03       3.17
O      22.45       6.18      -3.18
H      20.72       8.11       0.83
C      16.55      12.18       3.58
O      17.86       9.12       4.76
O      19.54      10.55       4.76
O      18.52       8.31      -4.73
O      19.93      10.00      -4.79
C      21.60       7.04      -3.59
C      17.29      11.40       2.55
C      20.84       7.80      -2.55
C      18.23      10.40       2.86
C      18.91       9.69       1.88
C      19.83       8.72      -2.86
C      19.13       9.41      -1.88
C      21.13       7.61      -1.19
C      20.44       8.30      -0.20
C      17.05      11.65       1.19
C      17.73      10.95       0.20
C      18.68       9.96       0.52
C      19.42       9.21      -0.52
