28

N       2.58       2.43       5.95
N       3.70       1.58       5.95
N       2.60       2.50       0.70
H       3.39       0.61       5.89
H       4.26       1.80       5.13
H       1.92       4.54      11.41
H       1.47       4.75       8.96
H       3.60       1.03       8.40
H       3.97       0.97      10.81
H       1.47       4.74       2.94
H       1.88       4.43       0.50
H       3.29       0.58       1.06
H       2.90       0.67       3.50
C       2.26       3.79      10.70
C       2.00       3.89       9.35
C       2.45       2.90       8.46
C       3.19       1.84       9.00
C       3.42       1.80      10.38
C       2.06       3.05       7.06
C       1.91       2.97       4.87
C       2.17       2.74       3.45
C       1.87       3.80       2.57
C       2.10       3.63       1.21
C       2.89       1.48       1.52
C       2.69       1.55       2.90
N       2.95       2.74      11.23
N       1.10       3.89       6.67
N       1.02       3.86       5.31
