16

Br      16.65       4.26       2.50
Br      11.70       1.20       5.63
C      12.20       1.52       2.28
O      11.20       0.91       2.77
O      15.89       3.78       7.10
O      12.45       1.68       1.04
O      17.15       4.54       5.37
H      14.34       2.84       1.61
C      13.18       2.12       3.25
C      15.26       3.39       3.48
C      13.09       2.05       4.66
C      14.27       2.79       2.70
C      14.07       2.65       5.44
C      15.17       3.33       4.88
H      14.01       2.61       6.52
C      16.15       3.93       5.85
