22

H       3.11       9.97       7.66
H       2.63      12.46       7.58
H       2.05      16.51       6.53
H       5.07      16.47       9.61
C       3.76      10.70       8.14
C       3.50      12.06       8.09
C       4.39      12.94       8.74
C       5.51      12.41       9.40
C       5.70      11.01       9.39
C       2.66      17.02       7.27
C       3.55      16.31       8.08
C       4.35      17.00       8.99
C       4.21      18.38       9.08
C       2.59      18.40       7.44
Br       7.19      10.27      10.26
Br       6.74      13.58      10.22
Br       1.36      19.32       6.35
Br       5.32      19.24      10.34
N       4.84      10.19       8.77
N       4.19      14.32       8.86
N       3.67      14.90       7.87
N       3.34      19.09       8.33
