26

H       6.15       6.40       6.05
O       7.13       5.89      12.90
O       8.21       3.88      12.89
C       7.04       4.56      11.00
C       5.41       3.40       6.82
C       6.31       4.06       5.68
C       6.70       2.96       7.61
C       6.67       4.33       8.41
C       7.60       3.61       6.49
C       7.58       4.98       7.28
C       6.12       3.88       4.30
C       6.87       4.47       9.80
C       7.47       4.78      12.36
C       5.39       4.77       7.59
C       5.43       3.29       1.81
C       6.30       5.42       6.49
C       5.90       3.66       3.12
C       8.79       5.70       7.50
C       8.77       3.07       5.89
I       3.70       5.67       8.44
I       7.07       1.13       8.53
I       3.76       2.17       6.41
N       9.84       6.20       7.65
N       9.74       2.70       5.36
O       4.63       4.11       1.24
O       5.78       2.15       1.36
