24

C       6.11       3.86       8.55
H       3.79       4.65       6.49
H       4.24       2.43       8.23
C       5.02       3.04       7.74
C       6.96       4.56       6.61
H       5.74       6.12       7.92
C       4.77       4.27       6.81
C       5.11       3.27       1.87
C       5.85       5.09       7.57
H       7.74       5.16       6.12
C       5.56       3.55       3.20
C       5.73       3.65       4.40
O       5.49       2.17       1.34
H       8.19       2.95       7.86
O       6.76       5.57      12.88
H       6.24       1.47       6.43
O       7.94       3.62      12.88
O       4.29       4.10       1.33
C       6.25       3.94       9.95
C       7.07       4.43      12.40
C       6.47       4.06      11.15
C       6.13       2.50       6.78
C       5.87       3.73       5.81
C       7.21       3.33       7.54
