18

C      15.28      10.09      28.41
C      16.67      10.24      28.43
H      18.99      11.13      28.04
H      12.97       9.19      28.79
O      17.17      13.80      26.04
O      14.88      13.76      26.05
O      17.05       6.66      30.92
O      14.79       6.44      30.64
O      18.41      11.76      27.56
O      13.54       8.56      29.25
S      14.50      11.35      27.53
S      17.45       8.99      29.33
C      16.04      13.30      26.36
C      15.91       7.03      30.47
C      17.12      11.38      27.71
C      14.83       8.95      29.12
C      16.04      12.08      27.17
C      15.91       8.25      29.67
