54

H       3.01      13.11      10.60
H       2.38      15.14      11.94
H       1.79      17.33       8.30
H       1.04      16.34      14.43
H      -0.69      20.29      16.88
H      -0.32      20.40      14.41
H      -0.44      21.91      11.82
H       0.70      22.21       7.02
H       1.21      20.11       8.30
H       1.32      15.12       6.13
H       3.02      14.67       6.04
H       2.56      16.39       6.21
H       0.43      14.94      16.48
H       0.27      15.75      18.06
H       1.83      15.73      17.25
H      -2.25      24.24      10.79
H      -0.87      25.27      10.40
H      -0.84      24.25      11.87
C      -0.48      24.39       7.84
C       2.76      12.79       7.94
C      -0.19      18.24      18.52
C       0.69      18.46      12.84
C       1.50      17.52      10.93
C       0.70      19.65      10.89
C       2.73      14.04      10.10
C       2.38      15.16      10.85
C       2.01      16.34      10.19
C       2.04      16.39       8.79
C       2.34      15.26       8.02
C       2.65      14.07       8.70
C       0.64      17.19      14.98
C       0.42      17.09      16.36
C      -0.04      18.24      17.03
C      -0.32      19.42      16.33
C      -0.11      19.49      14.96
C       0.40      18.38      14.28
C      -0.22      21.97      10.76
C      -0.55      23.14      10.06
C      -0.22      23.20       8.68
C       0.42      22.11       8.07
C       0.71      20.95       8.77
C       0.38      20.88      10.13
C       2.32      15.37       6.52
C       0.75      15.81      17.08
C      -1.15      24.30      10.82
N       1.25      17.39      12.24
N       1.27      18.64      10.22
N       0.38      19.60      12.20
O       0.70      18.89      19.17
O       0.35      24.62       6.88
O       3.70      11.97       8.19
O      -1.17      17.61      19.04
O       1.84      12.60       7.08
O      -1.51      25.11       8.07
