22

H      13.05       9.42       4.74
H      14.07      10.77       5.36
H      15.47       8.10       8.83
H      15.50       5.77       4.08
H      14.18       6.86       4.62
H      14.20       5.14       5.15
H      12.32      10.68       5.79
C      11.50       8.29       7.32
C      17.42       7.65       8.00
C      14.82       6.01       4.90
C      13.23      10.10       5.59
C      15.97       7.58       8.01
C      15.17       7.00       7.07
C      12.99       8.20       7.08
C      13.71       7.07       7.24
Br      12.92       5.41       7.76
O      15.69       6.36       6.00
O      13.65       9.35       6.75
O      11.08       7.82       8.43
O      17.95       8.47       8.85
O      10.80       8.84       6.41
O      18.07       6.91       7.18
