70

N       5.98      13.53       5.99
O      11.87       6.67       0.45
O       6.95      12.94      16.63
O      10.27       5.14       0.95
H       7.50      13.82       3.83
H      11.49       8.88       1.38
O       0.09      20.39       0.45
H      10.23      10.64       2.59
O       1.69      21.93       0.95
H       7.86      12.48       7.57
H       7.05       7.82       3.34
H       8.34       6.06       2.15
H       8.57      12.02       2.54
H       7.87      12.50      10.02
H       5.77      10.90       6.48
H       6.87       9.09       5.21
H       7.44      11.94      11.93
H       4.46      13.25       3.83
H       0.47      18.19       1.38
H       4.47      15.07      14.38
H       1.73      16.43       2.59
H       4.52      15.13      11.93
H       4.10      14.59       7.57
H       4.91      19.25       3.34
H       3.62      21.01       2.15
H       3.39      15.05       2.54
H       4.09      14.57      10.02
H       6.19      16.17       6.48
H       5.09      17.98       5.21
H       7.49      12.00      14.38
O       5.01      14.13      16.63
C      10.76       6.32       0.98
C       9.99       7.37       1.69
C       7.37      12.78       4.13
C       6.58      12.48       5.26
C      10.52       8.66       1.81
C       6.82      12.67      13.84
C       9.80       9.64       2.49
C       8.55       9.36       3.06
C       7.82      10.41       3.79
C       6.80      12.66      12.45
C       7.03      12.94       8.12
C       8.03       8.05       2.93
C       8.74       7.07       2.26
C       7.97      11.76       3.41
C       7.02      12.94       9.50
C       6.40      11.14       5.62
C       7.01      10.12       4.90
C       1.20      20.75       0.98
C       1.97      19.70       1.69
C       4.59      14.29       4.13
C       5.38      14.59       5.26
C       1.44      18.41       1.81
C       5.14      14.40      13.84
C       2.16      17.43       2.49
C       3.42      17.71       3.06
C       4.14      16.65       3.79
C       5.16      14.41      12.45
C       4.93      14.13       8.12
C       3.93      19.01       2.93
C       3.22      20.00       2.26
C       3.99      15.31       3.41
C       4.94      14.13       9.50
C       5.57      15.93       5.62
C       4.95      16.95       4.90
C       5.98      13.53       7.39
C       5.98      13.53      11.72
C       5.98      13.53      16.04
C       5.98      13.53      10.24
C       5.98      13.53      14.56
