19

H      12.87      10.78      12.98
C      13.12       5.14      11.09
S      12.89       7.73      14.26
S      13.07       8.46      10.16
H      14.01       4.53      11.28
H      13.16       5.51      10.06
H      12.26       4.47      11.20
C      12.97       4.98      14.27
O      13.04       3.86      13.66
O      12.88       5.16      15.54
C      12.98      11.23      10.15
O      12.91      12.33      10.79
O      13.05      11.08       8.88
C      13.04       6.28      12.06
C      12.92       9.91      12.34
C      12.98       6.19      13.45
C      12.98      10.00      10.96
C      12.94       8.56      12.75
C      13.02       7.65      11.68
