26

C       6.90       1.37       7.56
H       2.87       1.65      11.67
H       1.80       1.49      10.25
H       2.87      -0.86      11.93
H       1.80      -1.00      10.52
C       8.26       1.49       8.27
O       3.79      -3.37       9.84
O       5.98      -3.37       9.25
H       6.53      -1.23       8.05
H       9.02       1.92       7.59
H       8.17       2.14       9.15
H       8.61       0.51       8.60
H       7.01       0.74       6.66
H       6.58       2.37       7.20
O       3.78       3.65       8.95
O       6.00       3.60       9.43
C       4.87      -2.79       9.50
C       3.89      -0.51       9.99
C       4.84      -1.31       9.37
C       5.79      -0.63       8.58
C       5.83       0.76       8.43
C       4.87       1.56       9.11
C       3.90       0.88       9.85
C       2.69       1.08      10.75
C       2.69      -0.50      10.91
C       4.89       3.05       9.14
