25

H      -3.14       6.36       7.47
H      -4.89      10.59       5.53
H      -5.41      10.00       7.90
H      -2.34       7.05       3.94
H      -1.46       5.01       4.48
H      -2.82       4.78       5.60
H      -1.31       5.55       6.16
C      -4.68       7.40      10.32
C      -3.52       7.27       7.03
C      -3.23       7.59       5.69
C      -4.52       9.66       5.96
C      -4.81       9.34       7.28
C      -4.30       8.14       7.82
C      -3.73       8.82       5.16
C      -3.42       9.19       3.84
C      -4.53       7.78       9.17
C      -3.14       9.52       2.69
C      -2.99      10.16       1.42
C      -4.74       6.75      11.59
C      -2.01       5.46       5.31
N      -2.50       6.75       4.89
O      -5.91       6.57      12.11
O      -4.06      10.52       0.84
O      -1.80      10.38       0.98
O      -3.65       6.36      12.09
