10

Br       2.10       6.89       7.26
C       3.73       9.24       8.88
C      -0.08       8.46       8.15
C       2.23       9.28       8.84
C       1.43       8.40       8.20
Br       1.49      10.74       9.81
O      -0.58       9.59       7.87
O       4.25       8.08       8.88
O      -0.69       7.38       8.38
O       4.34      10.35       8.90
