12

O       3.95      -3.80      16.48
O       1.67      -3.82      16.51
C       2.58       2.71      11.26
C       2.61       1.76      12.03
C       2.65       0.71      12.86
C       2.69      -0.26      13.62
C       2.74      -1.31      14.46
C       2.78      -2.27      15.22
C       2.80      -3.38      16.13
C       2.57       3.80      10.32
O       3.72       4.18       9.90
O       1.43       4.25       9.99
