50

N       3.11      12.89       1.75
N      -3.11       5.46      -1.75
N      -3.11       5.46       1.75
N       3.11      12.90      -1.75
O      -0.30      10.27       5.62
O       0.30       8.08      -5.62
O       0.31       8.08       5.62
O      -0.31      10.28      -5.62
H      -3.38       8.10       3.48
H      -2.43       8.42       4.98
H      -3.06       6.78       4.65
H       2.43       9.93      -4.98
H       3.38      10.25      -3.48
H       3.07      11.58      -4.65
H       3.39      10.24       3.49
H       2.44       9.92       4.98
O      -1.46       7.27       3.51
H       3.08      11.56       4.65
H      -2.44       8.44      -4.98
H      -3.39       8.12      -3.49
O       1.47      11.07       3.51
O      -1.47       7.28      -3.51
H      -3.07       6.79      -4.65
O       1.46      11.08      -3.51
C      -0.75       8.22       2.85
C       0.76      10.13      -2.85
C      -0.77       8.20       1.43
C       0.77      10.15      -1.43
C       0.78      10.14       1.43
C      -0.77       8.21      -1.43
C       0.00       9.17       0.71
C       0.76      10.12       2.85
C      -0.00       9.18      -0.71
C       2.38      12.08       1.35
C      -2.38       6.27      -1.35
C      -0.76       8.23      -2.85
C      -2.37       6.27       1.34
C       2.38      12.08      -1.34
C      -2.65       7.68       4.20
C       2.66      10.67      -4.20
C       2.67      10.66       4.20
C      -2.66       7.70      -4.20
C       0.01       9.17       3.55
C      -0.00       9.18      -3.55
C       1.55      11.11       0.70
C      -1.55       7.24      -0.70
C      -1.55       7.24       0.70
C       1.55      11.11      -0.70
C       0.01       9.17       5.05
C      -0.00       9.18      -5.05
