10

C       9.35       4.61       9.75
H       9.74       5.61       9.92
C      10.17       3.56       9.59
H       9.77       2.55       9.49
O      12.29       2.68      10.06
O       7.21       5.33      10.39
C      11.65       3.69       9.61
C       7.88       4.44       9.75
O      12.14       4.79       9.18
O       7.41       3.44       9.12
