10

H       3.23       0.53       5.82
H       6.26       0.37       5.24
C       4.24      -1.41       5.55
C       5.29       0.83       5.44
C       5.26       2.31       5.49
C       4.20       0.07       5.62
O       5.35      -1.99       5.35
O       3.11      -2.00       5.72
O       6.36       2.90       5.21
O       4.16       2.88       5.79
