17

C      22.80      15.69       6.80
O      21.94      15.51       5.87
C      24.51      17.32       7.79
C      24.88      20.52       6.15
C      23.51      16.96       6.87
C      25.88      20.86       7.05
C      24.37      19.23       6.42
C      25.00      18.62       7.52
O      23.13      14.82       7.69
O      26.36      22.92       6.09
H      24.57      21.19       5.35
H      25.64      16.97       9.29
S      23.18      18.21       5.70
S      26.20      19.63       8.23
O      24.94      16.51       8.79
O      27.55      22.28       7.94
C      26.65      22.11       7.04
