40

N      19.75      16.57       2.72
N      19.90      16.62       4.09
N      15.21      21.97       4.12
N      15.63      23.59       2.33
N      14.97      23.95       1.27
N      14.81      22.72       3.01
H      11.36      21.75       0.36
H      13.56      25.17      -1.14
N      15.73      20.33       2.48
N      16.50      19.27       2.36
N      16.04      20.88       3.67
H      14.07      25.19       8.53
H      18.03      26.47       7.31
H      18.96      17.72       5.64
H      18.51      17.59       1.34
N      15.88      22.75       5.06
N      17.19      23.15       4.95
N      17.37      24.04       5.87
H      12.89      21.82       2.71
H      17.40      20.49       5.30
H      14.17      23.30       6.23
C      11.74      22.61      -0.18
C      12.84      23.43       0.10
C      12.87      24.35      -0.96
C      15.02      25.69       8.38
C      16.09      25.35       7.54
C      17.05      26.35       7.77
C      19.02      17.53       4.57
C      18.30      18.09       3.51
C      18.79      17.45       2.37
C      13.75      23.30       1.22
C      13.64      22.51       2.34
C      17.29      19.13       3.47
C      16.98      20.17       4.35
C      16.19      24.30       6.55
C      15.22      23.45       6.03
N      11.85      24.10      -1.81
N      11.15      23.02      -1.33
N      16.58      27.22       8.68
N      15.33      26.81       9.06
