39

N       9.93      10.11       7.87
N      10.17       8.79       8.20
N      20.24      15.75       2.66
N      20.70      15.13       3.79
H      11.46       7.29       7.44
H      10.67      11.43       6.40
H      20.24      13.31       4.78
H      18.78      15.27       1.20
N      16.24       5.66      -2.07
N      17.49       5.32      -1.60
H      18.74       6.05      -0.06
H      14.80       7.12      -1.52
N      16.49      10.32       2.46
N      15.41      11.19       4.40
N      14.40       9.40       3.18
H      17.58       8.49       1.03
H      14.54       7.96       1.08
H      17.92      12.44       1.67
H      17.54      12.54       4.73
H      12.68       8.34       4.90
H      13.28      11.24       5.75
C      11.10       8.31       7.35
C      11.50       9.33       6.46
C      10.72      10.44       6.84
C      20.02      13.98       3.95
C      19.10      13.82       2.90
C      19.29      14.96       2.11
C      17.80       6.15      -0.58
C      16.73       7.03      -0.34
C      15.77       6.67      -1.31
C      15.47       9.44       2.35
C      16.41      11.17       3.50
C      14.42      10.30       4.19
C      16.64       8.04       0.69
C      15.50       8.44       1.29
C      18.14      12.75       2.70
C      17.45      12.18       3.70
C      12.53       9.28       5.44
C      13.33      10.32       5.16
