16

C      16.38       5.63       7.00
C      14.91       5.86       7.10
C      14.08       5.02       7.86
C      12.72       5.29       7.95
C      14.36       6.97       6.44
C      13.00       7.23       6.53
C      10.70       6.67       7.34
C      12.17       6.39       7.28
O      16.91       4.71       7.72
H      14.53       4.16       8.37
H      15.02       7.62       5.87
O      17.01       6.40       6.20
H      12.06       4.64       8.54
H      12.56       8.09       6.02
O      10.02       6.04       8.21
O      10.26       7.52       6.50
