10

N       5.06       8.46       0.03
H       6.69      11.11      -0.75
C       4.54      10.63      -0.28
H       3.98      11.55      -0.35
O       2.70       7.52       0.60
O       1.70       9.53       0.41
C       4.04       9.36       0.05
C       2.74       8.79       0.38
C       5.90      10.42      -0.49
N       6.19       9.10      -0.29
