36

O       5.10      20.11      20.20
O       2.44      30.42       8.57
O       2.83      19.99      20.14
O       4.71      30.54       8.63
H       5.49      29.74      10.94
H       2.05      20.79      17.83
H       5.45      28.07      12.80
H       2.09      22.46      15.97
H       1.76      28.19       9.49
H       5.79      22.34      19.28
H       1.65      26.50      13.97
H       5.89      24.03      14.80
H       1.81      24.93      15.87
H       5.73      25.60      12.90
C       3.96      20.43      19.74
C       3.58      30.10       9.03
C       4.67      29.03      11.03
C       2.87      21.50      17.74
C       4.65      28.08      12.05
C       2.89      22.45      16.72
C       3.62      27.12      12.17
C       3.92      23.41      16.60
C       2.61      27.16      11.19
C       4.93      23.37      17.58
C       2.57      28.15      10.22
C       4.97      22.38      18.55
C       3.61      29.09      10.13
C       3.94      21.44      18.64
C       2.58      25.95      14.14
C       4.96      24.58      14.63
C       2.67      25.07      15.21
C       4.87      25.46      13.56
C       3.86      24.37      15.48
C       3.68      26.16      13.29
I       1.18      25.61      10.98
I       6.36      24.92      17.79
