28

N      14.72       2.24      10.76
N      15.23      11.96      10.89
N      14.61       2.21      12.13
N      15.29      11.91      12.27
H      14.02       3.63      13.60
H      14.91      10.41      13.72
H      12.67       6.48       9.56
H      15.16       7.86       9.42
C      13.98       4.27      11.45
C      14.58       9.88      11.56
C      13.30       6.75      10.40
C      14.68       7.51      10.32
F      14.37       3.80       9.07
C      15.28       6.53      11.37
C      12.87       7.69      11.58
F      14.68      10.51       9.17
C      14.25       8.46      11.51
C      13.90       5.73      11.45
C      14.84       7.44      12.56
F      11.65       8.30      11.69
C      13.47       6.68      12.63
F      16.47       5.88      11.26
F      15.61       7.81      13.62
F      12.85       6.26      13.77
C      14.35       3.46      10.37
C      14.81      10.76      10.49
C      14.17       3.42      12.55
C      14.91      10.68      12.67
