51

C       1.46       6.86       9.64
C       0.53       7.49      10.67
C       4.30       7.32      10.71
C       3.77       6.18       9.83
N       3.74       2.49       4.49
N       2.38       5.84      10.17
H      -1.18       4.13       6.46
O       2.19       1.06       2.66
H      -0.76       4.17       4.25
H       0.51       3.03       3.77
H       0.82       4.76       3.66
O       1.01       0.10       4.33
H      -0.78       5.20       9.71
O       5.20       1.00       2.71
H      -0.80       3.44       9.81
O       6.68       0.46       4.34
H      -1.82       4.28       8.62
O       0.75       7.27      11.91
H       1.16       4.17      10.50
O      -0.40       8.22      10.20
H       2.84       3.81      10.18
O       3.77       7.47      11.86
H       4.65       4.69       7.47
O       5.27       7.98      10.24
H       4.47       2.96       7.15
H       4.20       3.58       8.78
H       4.12       4.44       5.20
H       2.83       4.34       4.02
H       2.34       1.61       5.85
H       3.58       0.52       5.22
H       5.37       1.98       5.81
H       5.73       3.16       4.52
H       0.86       6.47       8.80
H       2.04       7.69       9.21
H       3.91       6.44       8.77
H       4.41       5.32      10.06
C       2.19       3.92       6.02
C       2.58       3.98       7.38
C       1.62       4.18       8.40
C       0.25       4.19       8.06
C      -0.11       4.11       6.72
C       0.82       4.01       5.69
C       0.33       3.99       4.27
C      -0.84       4.29       9.11
C       2.00       4.43       9.84
C       4.04       3.80       7.72
C       3.23       3.86       4.92
C       2.92       1.36       4.95
C       1.96       0.81       3.89
C       5.72       1.14       3.87
C       5.16       2.25       4.77
