16

H       1.90      27.29      12.72
H       1.90      23.07      16.36
C       1.99      25.18      10.78
C       1.99      25.18      18.30
C       1.93      26.27      13.09
C       1.93      24.09      15.99
C       1.98      25.17      12.26
C       1.98      25.19      16.82
C       2.00      24.48      14.63
C       2.00      25.88      14.45
S       2.07      23.66      13.11
S       2.07      26.70      15.96
O       2.92      24.53      10.19
O       1.06      25.84      10.19
O       2.92      25.83      18.88
O       1.06      24.52      18.89
