24

H      17.04       4.61       3.57
H      16.15       4.63       2.10
H      11.35       1.11       4.59
H      11.73       1.91       6.06
H      14.08       2.49       0.71
H      15.70       2.92       1.09
H      14.57       2.81       7.45
H      13.46       1.55       7.07
C      16.21       3.95       5.88
N      16.43       4.11       2.93
N      12.07       1.43       5.23
N      14.71       3.00       1.32
N      13.83       2.47       6.84
C      12.31       1.56       2.28
O      15.99       3.92       7.15
O      17.27       4.49       5.38
C      15.22       3.35       4.97
C      13.30       2.16       3.19
C      15.37       3.46       3.55
C      13.13       2.08       4.61
C      14.44       2.85       2.68
O      11.34       0.86       2.77
O      12.43       1.74       1.01
C      14.09       2.64       5.48
