42

H       3.91       2.25       7.13
H       6.41       2.25      10.66
H       4.82      -2.16       6.76
H       2.17       3.86       6.76
H       3.35       3.79       5.41
H       2.02       6.39       6.31
H       2.85       6.10       4.78
H       0.98       4.46       4.12
H       0.38       6.10       4.41
H       0.16       4.86       5.65
H       5.50      -2.17      11.03
H       8.15       3.86      11.04
H       6.97       3.79      12.39
H       8.30       6.39      11.48
H       7.47       6.10      13.01
H       9.33       4.46      13.67
H       9.94       6.10      13.39
H      10.16       4.85      12.15
H       4.85      -4.69       6.85
H       5.47      -4.69      10.94
C       4.45       2.79       7.91
C       5.87       2.79       9.88
C       4.49       4.18       7.94
C       5.83       4.18       9.85
C       5.16       2.08       8.90
C       5.16       0.67       8.90
C       5.16      -0.55       8.90
C       4.97      -2.69       7.70
C       5.35      -2.69      10.09
C       4.98      -4.07       7.74
C       5.34      -4.07      10.05
C       5.16      -1.97       8.90
C       2.88       4.45       6.16
C       2.19       5.64       5.52
C       0.86       5.24       4.89
C       7.44       4.45      11.63
C       8.13       5.64      12.27
C       9.46       5.24      12.91
N       5.16       4.87       8.90
N       5.16      -4.75       8.90
O       3.91       4.98       7.04
O       6.41       4.98      10.75
