36

O       8.97       9.57      19.79
O      11.70       9.36      22.48
O      13.42      13.96      20.50
O      10.12      13.63      25.61
O      12.39      13.68      25.45
H       6.84      11.34      20.09
H       7.25      12.87      19.26
H       6.32      12.91      20.80
H       7.71       8.39      20.88
H       8.05       9.99      21.64
H       9.29       8.71      21.68
H      12.74       9.19      20.74
H      12.17      14.81      19.13
H       9.61      13.53      18.50
H      12.77      11.15      18.83
C      10.82      12.18      21.15
C      11.81      11.41      19.29
C      10.42      11.31      18.56
C      11.25      10.76      20.58
C       9.79      10.66      19.85
C      11.02      12.57      22.49
C      10.23      10.84      17.24
C      10.07       9.66      14.87
C      10.05      12.75      19.11
C      11.21      13.42      25.00
C       9.44      12.11      20.41
C       7.11      12.40      20.25
C      11.13      12.88      23.67
C       8.48       9.15      21.08
C      11.94       9.70      21.33
C      12.40      13.97      19.82
C      10.11      10.39      16.11
C      11.43      12.84      19.83
O      11.17       9.39      14.33
O       8.90       9.30      14.44
O       8.30      12.52      21.05
