40

O       5.09      12.89      11.80
H       5.54      10.18      11.83
O       7.05       7.67      20.00
H       6.29       7.16      15.37
H       5.69       8.17      13.30
O       7.31      13.24      12.06
H       8.91      10.80      20.42
H       8.04      12.90      19.38
H       7.28       7.29      17.62
O       9.27       8.05      20.29
O       6.90      12.94      15.20
O       5.07      12.98      17.43
H       8.09      14.48      15.72
H       7.95      14.25      13.96
H       9.49      12.40      15.88
H       9.40      12.22      14.11
H      10.46      14.53      13.86
H      11.50      13.46      14.81
H      10.51      14.67      15.63
H       6.78      14.07      17.56
C       6.22      12.65      12.34
C       8.13       8.33      19.80
C       5.93       9.17      13.68
C       6.26      11.54      13.34
C       8.37      10.76      19.48
C       7.90      11.94      18.88
C       7.16      11.89      17.70
C       7.04      10.67      16.97
C       7.36       9.46      17.67
C       6.64      10.58      15.57
C       6.34       9.30      15.03
C       6.53       8.12      15.82
C       7.07       8.20      17.07
C       6.65      11.70      14.68
C       5.87      10.27      12.86
C       7.99       9.54      18.95
C       8.09      13.73      14.91
C       9.39      12.96      14.93
C      10.53      13.96      14.79
C       6.28      13.07      17.48
