69

H       5.04      14.61      10.96
H       2.88      14.96      14.64
H       2.62      18.07      11.70
H      -3.03      19.86      19.35
H       1.45      19.07      12.84
H       0.03      20.34      14.34
H       2.07      16.12      15.93
H       5.06      15.13       9.02
H       0.64      17.40      17.43
H       8.42       7.02      14.37
H       7.51       9.05      12.92
H       4.81      20.80       3.49
H       3.96      20.34       5.97
H      -1.42      18.07      18.22
H       5.77      16.11       6.90
H       3.60      18.98      10.31
H       4.29      19.95       8.19
H       4.42      13.81      15.40
H       5.39      11.70      16.18
H       5.78      10.38      12.09
H       4.80      12.49      11.32
C       3.83      16.39      11.15
C       4.32      15.15      11.58
C       3.99      14.63      12.84
C       3.17      15.39      13.68
C       2.69      16.65      13.31
C       3.01      17.11      12.02
C      -2.26      21.31      17.93
C      -2.36      20.05      18.52
C      -0.75      19.65      16.87
C       1.29      18.68      13.85
C       0.47      19.41      14.70
C       1.86      17.45      14.23
C       0.18      18.95      16.00
C       1.62      17.03      15.55
C       4.24      16.96       9.85
C       4.54      13.33      13.30
C       4.88      16.19       8.86
C       5.68      10.88      14.20
C       6.32       9.65      14.65
C       0.80      17.76      16.41
C       7.69       7.76      14.70
C       7.17       7.73      15.98
C       7.20       8.84      13.94
C       5.06      18.11       7.36
C       5.20      20.04       4.16
C       5.38      18.69       6.07
C       4.76      19.79       5.48
C       6.18      19.14       3.75
C      -1.49      19.12      17.92
C       5.29      16.75       7.65
C       4.05      18.33       9.56
C       4.45      18.89       8.36
C       6.85      19.08       2.45
C       4.70      13.06      14.67
C       5.25      11.86      15.11
C       5.49      11.14      12.82
C       4.94      12.34      12.39
C       7.51       6.78      17.05
C       5.18      22.52      18.34
S       6.07       9.03      16.24
S       6.55      18.01       4.99
S      -1.13      21.32      16.65
O       7.86      18.34       2.28
O       6.40      19.85       1.51
O       6.86       6.80      18.17
O       8.46       5.96      16.84
O       5.55      23.68      17.90
O       4.19      22.39      19.13
