17

O       7.42       8.97      18.90
C       7.42       5.17      20.89
C       7.50       4.28      19.81
H       7.29       7.28      22.25
C       7.47       7.86      18.28
S       7.54       5.10      18.30
S       7.37       4.35      22.41
O       7.33       7.60      21.33
C       7.52       2.93      20.21
H       7.57       2.06      19.56
O       7.36       1.73      23.66
C       7.45       1.58      22.39
O       7.53       0.48      21.75
C       7.40       6.53      20.49
O       7.54       7.68      17.01
C       7.46       6.65      19.10
C       7.45       2.81      21.59
