40

H       0.90       6.26      10.20
H       3.24       4.43       7.03
H       3.24       7.25      10.20
H       0.90       9.08       7.03
H       3.24       8.58       6.17
H       0.90       4.93       6.17
C       2.07      11.75      10.68
C       2.07       6.76       2.03
C       2.07       1.76      10.68
C       1.44       4.21      10.42
C       1.41       5.42       9.75
C       2.07       5.53       8.51
C       2.72       4.40       7.99
C       2.70       3.21       8.70
C       2.07       3.06       9.93
C       2.72       8.09       9.75
C       2.70       9.30      10.42
C       2.07      10.45       9.93
C       1.44      10.30       8.70
C       1.41       9.11       7.99
C       2.07       7.98       8.51
C       2.72       7.77       5.67
C       2.70       7.75       4.28
C       2.07       6.76       3.54
C       1.44       5.76       4.28
C       1.41       5.74       5.67
C       2.07       6.76       6.38
N       2.07       6.76       7.80
O       3.04       1.56      11.46
O       3.04      12.53      10.47
O       3.04       6.18       1.47
O       1.09       0.98      10.47
O       1.09       7.33       1.47
O       1.09      11.95      11.47
F       3.33       2.13       8.17
F       0.80       4.13      11.62
F       3.33       9.38      11.62
F       0.80      11.38       8.17
F       3.33       8.75       3.62
F       0.80       4.76       3.62
