49

C      13.86       1.97       1.10
C      10.87       0.88       3.91
C      16.24       2.37       0.37
C      16.79       2.88      -0.78
C       5.67       0.76       6.61
C      14.05       0.81       1.86
C      11.91       1.21       2.94
C      13.07       0.44       2.78
C       9.00       0.66       4.89
C      14.63       2.89      -1.07
C       5.32       0.63       4.21
C       5.56       0.61       9.11
C       7.05       0.71       6.41
C       7.56       0.64       5.11
C      12.70       2.73       1.22
C      11.72       2.34       2.13
C       4.80       0.71       5.50
C       6.70       0.60       4.01
C       3.65       1.69       9.59
C       3.78       1.57       8.03
C      12.31       0.44       5.97
C       2.47       0.75       9.45
C       2.63       0.59       8.12
H      16.66       2.03       1.30
H      17.83       3.03      -1.04
H      14.94       0.20       1.74
H      13.20      -0.49       3.34
H      13.65       2.98      -1.53
H       4.64       0.59       3.36
H       6.48       0.02       9.23
H       7.74       0.79       7.25
H      12.58       3.64       0.63
H      10.81       2.93       2.25
H       3.73       0.73       5.65
H       7.13       0.57       3.01
H       3.52       2.67      10.07
H       3.69       2.46       7.39
H      12.56      -0.61       6.15
H      12.20       0.97       6.92
H      13.12       0.90       5.39
N      14.86       2.38       0.17
N      15.78       3.20      -1.66
N      11.08       0.56       5.22
N       9.89       0.42       5.86
N       9.56       0.96       3.68
N       5.10       0.95       7.88
N       4.84       0.99      10.12
H       2.17      -0.05       7.36
H       1.84       0.31      10.21
