14

H       0.39      -5.08      13.95
C      -0.40      -3.93      12.33
O      -4.53      -1.64      13.24
H      -1.52      -4.55      15.50
C      -0.43      -4.44      13.62
C      -1.44      -3.08      11.84
O      -3.60      -1.18      11.28
C      -1.49      -4.14      14.49
H      -3.35      -3.06      14.69
C      -3.59      -1.83      12.38
O      -1.32      -2.65      10.60
C      -2.51      -3.32      14.04
C      -2.51      -2.77      12.74
H       0.42      -4.15      11.65
