20

H      -1.76      -4.61      16.86
H      -3.79      -3.17      16.86
H      -5.72      -5.89      19.59
H      -3.69      -7.33      19.59
C      -3.72      -6.42      18.99
C      -4.85      -5.62      19.00
C      -2.60      -6.07      18.22
C      -4.89      -4.44      18.22
C      -2.63      -4.89      17.45
C      -3.76      -4.08      17.45
C       0.70      -8.45      18.22
C      -8.22      -2.10      18.22
C      -1.45      -6.89      18.22
C      -6.04      -3.62      18.22
C      -7.04      -2.93      18.22
C      -0.46      -7.61      18.22
O       1.65      -8.10      17.43
O      -8.19      -1.09      17.43
O       0.67      -9.47      18.99
O      -9.17      -2.46      18.99
