24

H      23.24      11.30      13.75
H      21.62      11.13      13.19
H      22.73       5.20      10.89
H      23.82       5.06      12.21
H      20.28       9.48      10.69
H      21.17      10.85      11.23
H      25.96       7.18      13.55
H      25.56       6.11      12.26
N      22.61      10.94      13.04
N      23.47       5.63      11.44
N      20.89       9.88      11.39
N      25.23       6.71      13.01
C      25.00       9.49      14.02
C      21.11       7.10      10.41
C      24.01       8.88      13.11
O      24.86      10.73      14.37
O      25.98       8.77      14.46
C      22.87       9.63      12.67
C      21.95       9.06      11.77
C      24.18       7.54      12.64
C      23.21       6.95      11.79
C      22.09       7.70      11.33
O      21.34       5.92       9.95
O      20.04       7.76      10.10
