50

H       8.35      10.07      22.00
H       5.57       4.11      24.91
H       8.38      10.21      24.53
H       5.53       3.97      22.38
H       8.84       6.69      28.78
H       5.44       8.58      18.40
H       8.61       6.93      31.27
H       5.40       8.59      15.89
H       4.87       8.27      28.31
H       8.08       5.18      18.30
C       7.92       7.08      29.23
C       6.01       7.85      17.83
C       7.79       7.21      30.60
C       5.99       7.86      16.44
C       6.61       7.68      31.20
C       6.75       6.94      15.69
C       5.56       8.07      30.35
C       7.49       5.97      16.37
C       5.68       7.96      28.97
C       7.51       5.94      17.77
C       6.85       7.45      28.42
C       6.78       6.90      18.48
C       6.55       7.66      32.70
C       6.74       7.14      14.20
C       6.34       5.82      20.64
C       7.49       8.41      26.27
C       7.44       8.08      20.50
C       6.44       6.13      26.41
C       7.45       8.13      21.98
C       6.46       6.05      24.93
C       6.95       7.05      22.74
C       6.97       7.13      24.17
C       6.41       5.90      22.12
C       7.49       8.29      24.79
C       7.97       9.26      22.62
C       5.96       4.92      24.29
C       7.99       9.34      24.02
C       5.93       4.85      22.89
I       3.76       8.94      31.04
I       8.54       4.41      15.40
N       6.86       6.92      19.92
N       6.94       7.32      26.98
O       7.64       7.88      33.32
O       5.65       7.57      13.70
O       7.82       6.90      13.57
O       5.43       7.38      33.23
O       5.85       4.86      20.05
O       7.93       9.39      26.86
O       7.90       8.97      19.80
O       6.01       5.22      27.13
