16

O      12.26       4.76      15.20
H      12.23       1.30      17.17
C       9.76       2.77      20.86
O       9.91       1.61      21.41
C      10.44       2.98      19.54
H      11.15       0.97      19.41
O      13.04       2.66      15.21
C      10.38       4.23      18.90
C      10.98       4.42      17.66
C      11.11       1.93      18.91
O       9.05       3.68      21.35
C      11.66       3.37      17.04
C      11.71       2.12      17.66
H       9.86       5.06      19.39
H      10.94       5.39      17.16
C      12.36       3.59      15.73
