30

H       9.23       9.28      29.23
H      12.32      12.27      29.23
H      12.27      12.32      22.44
H       9.28       9.23      22.44
C      10.77      10.77      30.85
C      10.77      10.77      20.81
C       9.90       9.91      27.27
C       9.90       9.93      28.67
O       9.82      10.16      31.42
O      11.73      11.39      31.42
C      11.65      11.62      28.67
C      11.65      11.64      27.27
C      12.51      12.50      26.51
C      11.62      11.65      23.00
C      11.64      11.65      24.40
C      12.50      12.51      25.15
C       9.93       9.90      23.00
C       9.91       9.90      24.40
C       9.05       9.04      25.15
C      10.77      10.77      29.36
C      10.77      10.77      26.54
C      10.77      10.77      22.31
C      10.77      10.77      25.12
O      10.16       9.81      20.24
O      11.39      11.73      20.24
C       9.04       9.05      26.51
F       8.22       8.20      24.47
F       8.21       8.22      27.19
F      13.33      13.34      24.47
F      13.34      13.33      27.19
