10

C       0.53       0.34      11.40
C       0.56       1.34      10.70
O       0.87       3.61      10.44
O       0.37       2.31       8.62
O       0.37      -2.84      14.89
O       0.75      -4.07      13.00
C       0.61       2.51       9.86
C       0.54      -2.99      13.64
C       0.51      -1.79      12.85
C       0.52      -0.77      12.16
