28

N       9.89      14.71      14.00
N       4.92      17.57      13.92
N       9.89      17.56      13.93
N       4.92      14.71      13.98
C       8.61      16.83      13.93
C       6.20      15.44      13.98
C       8.61      15.44      13.99
C       6.20      16.83      13.92
C       7.41      17.57      13.90
C       7.40      14.70      14.01
C       7.40      18.97      13.91
C       7.40      13.30      14.00
C       7.40      12.08      13.96
C       7.40      20.19      13.95
O       6.26      22.18      13.91
O       8.55      22.18      14.00
O       6.26      10.09      13.99
O      10.11      13.99      14.97
O      10.62      14.89      13.01
O       4.69      18.30      12.96
O       4.20      17.39      14.91
O      10.12      18.28      12.96
O      10.62      17.38      14.91
O       4.69      13.98      14.94
O       4.20      14.88      12.98
C       7.40      10.63      13.95
C       7.41      21.64      13.96
O       8.55      10.09      13.90
