62

C      24.82      15.54       0.08
C      25.14      16.91      -0.04
C      26.05      17.46       0.88
C      26.59      16.71       1.94
C      25.14      13.29       1.13
C      24.16      12.67       1.91
C      24.05      11.26       1.92
C      24.90      10.51       1.10
C      25.86      11.11       0.28
C      25.99      12.51       0.33
H      20.57      18.46      -2.39
H      24.57      19.44      -3.73
H      20.58       8.55       3.00
H      23.68       7.71       5.91
C      23.36      17.62      -1.65
C      24.56      17.78      -1.06
C      23.41       9.47       3.50
C      23.08      10.57       2.79
C      28.48      18.20       2.47
C      27.54      17.32       2.87
C      26.32       9.21      -1.27
C      26.69      10.35      -0.65
H      31.03      19.62       1.92
H      28.33      19.31       5.30
H      29.30       8.89      -1.65
H      25.71       7.30      -3.49
H      26.61      14.75       2.87
H      24.18      15.07      -0.66
H      23.50      13.27       2.54
H      26.74      13.01      -0.28
N      22.64      20.13      -4.23
N      21.36      19.81      -3.81
H      26.31      18.52       0.80
H      24.80       9.42       1.10
N      21.74       6.95       5.56
N      20.75       7.22       4.64
H      22.71      16.80      -1.34
H      25.14      18.67      -1.30
H      24.46       9.17       3.52
H      22.06      10.97       2.83
H      28.60      18.36       1.39
H      27.46      17.05       3.93
H      25.30       8.84      -1.11
H      27.67      10.78      -0.89
N      30.95      20.50       3.85
N      30.10      20.40       4.92
N      27.78       7.04      -3.83
N      28.92       7.55      -3.25
C      21.46      18.85      -2.87
C      22.82      18.54      -2.64
C      23.51      19.38      -3.53
C      21.19       8.20       3.83
C      22.49       8.58       4.20
C      22.78       7.76       5.30
C      30.50      19.69       2.87
C      29.34      19.03       3.29
C      29.13      19.51       4.60
C      28.55       8.40      -2.26
C      27.15       8.44      -2.18
C      26.72       7.56      -3.19
C      26.20      15.36       2.07
C      25.35      14.77       1.12
