18

S      12.81       7.57      14.21
S      12.98       8.38      10.11
O      12.58       5.04      15.48
O      13.36       3.77      13.75
C      12.93       4.85      14.26
O      12.89      12.25      10.81
C      12.90       6.19      12.01
C      12.85       9.79      12.33
C      12.89      11.14      10.17
C      12.86       6.04      13.39
C      12.90       9.90      10.96
H      12.80      10.65      13.00
C      12.87       8.43      12.71
N      12.82       5.14      11.00
O      13.35       5.41       9.91
O      12.20       4.10      11.26
C      12.93       7.55      11.61
O      12.88      10.99       8.90
