22

H      10.52       0.97      12.20
H       9.29      -0.74      11.86
C       8.39      -3.23      11.97
C       9.90       3.61      12.69
C       8.69      -3.47       9.80
C       9.82       3.92      10.50
H       8.36      -2.91      13.01
H      10.03       3.25      13.71
H       8.93      -3.37       8.74
H       9.85       3.87       9.42
H      10.38       1.47       9.16
H      10.29      -0.97       8.97
N       7.84      -4.40      11.61
N       9.38       4.83      12.46
N       8.02      -4.55      10.25
N       9.33       5.02      11.11
C       8.96      -2.58      10.86
C      10.18       2.97      11.47
C      10.38       0.89      10.09
C      10.11      -0.52       9.95
C      10.44       1.56      11.28
C       9.50      -1.25      10.92
