30

H       9.34       7.45      22.10
H      11.37       8.23      20.10
H      10.89       8.24      22.40
C      10.29       8.26      20.29
H       9.61      11.74      22.02
C       8.18       9.56      19.84
C       7.90       9.66      21.36
C       8.73       9.77      24.76
C       9.70       9.51      19.58
H       9.86       7.36      19.81
C       9.97       8.30      21.80
C       9.24       9.61      22.15
H       7.75      10.42      19.30
H       7.72       8.66      19.41
H       7.26       8.84      21.70
H       7.39      10.60      21.61
H      11.43      10.77      19.95
O      11.27       9.68      14.98
O       8.72      11.21      26.54
H       9.93      11.66      19.69
O      10.58       7.55      15.41
H      11.06      10.77      22.27
C      10.70       8.78      15.70
O       7.58       9.25      26.71
C      10.11      10.81      21.71
C      10.35      10.78      20.19
C       8.97       9.67      23.57
C       9.97       9.40      18.16
C      10.21       9.19      16.99
C       8.34      10.10      26.10
