32

H      -0.72       8.90       9.77
H      -2.12       7.22      12.56
H      -0.87       7.13      11.33
H      -2.40       5.74       9.90
H      -3.65       5.83      11.13
H      -3.81       4.06      12.69
H       0.95       2.86      12.00
H       0.01       4.86      10.87
H      -4.54       8.10      11.59
H      -5.48      10.10      10.46
C      -3.65      10.66       9.49
C      -2.28      10.29       9.30
C      -1.77       9.14       9.94
C      -2.54       8.35      10.78
C      -1.96       7.15      11.48
C      -2.56       5.81      10.98
C      -1.98       4.61      11.68
C      -2.76       3.82      12.52
C      -2.25       2.67      13.16
C      -0.88       2.30      12.96
C      -0.09       3.14      12.14
C      -0.63       4.25      11.51
C      -3.17       1.90      14.01
C      -3.89       8.71      10.95
C      -4.43       9.82      10.32
C      -1.35      11.06       8.45
O      -0.17      10.65       8.21
O      -1.77      12.19       7.96
O      -4.22      11.74       8.95
O      -4.35       2.31      14.25
O      -2.76       0.77      14.50
O      -0.31       1.22      13.51
