23

H      11.22       7.18       8.49
H      13.98       9.60       5.13
H      14.03      10.31       7.51
H      10.34       6.31       5.14
H      11.64       5.26       5.71
H      10.35       5.74       6.83
C      13.38       9.07       5.87
C      13.41       9.47       7.20
C      12.62       8.79       8.15
C      12.58       7.99       5.47
C      12.56       7.58       4.11
C      12.62       9.22       9.50
C      12.52       7.19       2.95
C      12.62      10.36      11.88
C      12.52       6.47       1.72
C      12.62       9.62      10.65
C      11.83       7.70       7.75
C      11.79       7.28       6.42
C      10.98       6.09       6.01
O      11.39       6.07       1.26
O      13.66       6.21       1.20
O      11.48      10.70      12.37
O      13.76      10.70      12.37
