16

O       3.94       7.33      16.37
C       6.17       3.28      12.29
C       3.99       5.31      14.31
C       5.09       2.65      11.70
C       5.09       5.93      14.89
C       4.40       4.35      13.36
H       2.97       5.57      14.58
C       5.80       4.25      13.24
F       7.46       3.03      11.99
C       5.09       1.63      10.64
C       5.08       6.95      15.94
S       3.58       3.24      12.31
S       6.62       5.35      14.28
O       6.23       1.23      10.23
O       3.95       1.26      10.22
O       6.23       7.34      16.36
