24

H      20.67       9.35      11.33
S      23.23       5.05      11.46
S      21.91      11.09      13.10
H      24.63       6.90      12.98
H      23.89      11.71      12.96
H      22.71       5.33       9.46
O      24.77      10.64      13.95
O      25.37       8.54      14.53
C      24.64       9.36      13.90
C      20.77       6.95      10.26
O      21.13       5.98       9.50
O      19.64       7.52      10.22
C      23.58       8.77      13.01
C      21.77       7.50      11.24
C      22.43       9.45      12.55
C      22.89       6.80      11.75
C      21.55       8.81      11.68
C      23.77       7.45      12.61
O      23.05      12.02      12.49
O      20.71      11.43      12.40
O      21.96      11.10      14.54
O      23.56       5.03       9.90
O      24.44       4.72      12.13
O      22.01       4.33      11.72
