37

Si      21.51       0.04      11.17
H      22.67      -4.20       7.86
H      25.73      -1.14       7.85
H      22.72       4.28      14.49
H      25.72       1.15      14.51
H      20.40      -4.17      14.51
H      17.28      -1.16      14.49
H      20.41       4.26       7.81
H      17.33       1.20       7.79
C      23.53      -3.57       7.69
C      23.90      -2.36       8.31
C      25.11      -2.00       7.68
C      23.57       3.64      14.67
C      23.91       2.42      14.04
C      25.11       2.03      14.68
C      19.52      -3.56      14.68
C      19.14      -2.36      14.04
C      17.92      -2.01      14.67
C      19.54       3.63       7.63
C      19.16       2.43       8.27
C      17.97       2.07       7.62
C      23.19      -1.65       9.29
C      22.55      -1.01      10.12
C      19.84      -1.64      13.06
C      20.47      -1.00      12.23
C      19.86       1.72       9.26
C      20.48       1.09      10.11
C      23.20       1.72      13.06
C      22.56       1.08      12.23
N      25.43      -2.93       6.75
N      24.45      -3.90       6.76
N      25.44       2.94      15.61
N      24.49       3.94      15.60
N      17.62      -2.93      15.61
N      18.61      -3.89      15.61
N      17.66       2.98       6.68
N      18.64       3.95       6.68
