10

O      13.91      11.81      13.43
C      21.15      12.62      12.62
C      14.48      12.62      12.62
C      19.71      12.62      12.62
C      15.92      12.62      12.62
C      18.49      12.62      12.62
C      17.14      12.62      12.62
O      21.71      11.81      11.81
O      21.71      13.43      13.43
O      13.91      13.43      11.81
