30

N       5.90       5.69       9.83
N       5.89      -5.69       9.83
H       7.24       5.62      11.40
H       4.54      -5.61       8.27
H       4.55       5.62       8.27
H       7.24      -5.61      11.40
H       7.29       3.11      11.49
H       4.50      -3.11       8.18
H       4.50       3.12       8.18
H       7.29      -3.11      11.49
H       3.79       1.23       9.36
H       8.00      -1.23      10.31
H       8.00       1.24      10.31
H       3.79      -1.23       9.36
C       6.65       5.01      10.71
C       5.13      -5.01       8.96
C       5.14       5.01       8.96
C       6.65      -5.01      10.71
C       6.68       3.62      10.74
C       5.11      -3.62       8.93
C       5.11       3.62       8.93
C       6.68      -3.62      10.74
C       5.89       2.89       9.83
C       5.89      -2.89       9.83
C       4.72       0.70       9.55
C       7.07      -0.69      10.12
C       7.07       0.70      10.12
C       4.72      -0.69       9.55
C       5.89      -1.41       9.83
C       5.89       1.42       9.83
