29

N       9.87       5.90      14.71
N      10.66       6.33      21.54
H       9.66      10.51      23.28
N      10.22       6.68      20.41
H       9.89       4.02      20.93
O       8.99       1.51      16.85
O      10.57      11.49      25.27
H      12.09       6.18      23.67
H      12.37       7.96      25.43
H       9.55       2.27      19.15
O      10.21       2.77      15.39
H       9.41       8.74      21.50
H      10.11       7.04      17.88
C       9.63       2.56      16.51
O      11.96      10.14      26.47
C      11.04       9.34      24.44
C      10.20       9.56      23.34
C      10.06       8.59      22.36
C      10.75       7.38      22.48
C      11.57       7.14      23.60
C      11.20      10.40      25.47
C      11.73       8.12      24.57
C       9.89       4.28      19.87
C       9.71       3.31      18.89
C      10.06       5.62      19.49
C       9.73       3.65      17.52
C       9.89       5.01      17.15
C      10.02       5.99      18.14
C       9.88       5.45      15.79
