18

C       9.65      -3.61       9.05
C       1.52      -3.02       9.87
C       2.39      -2.01       9.40
C       7.56      -2.19       9.26
H       9.37      -0.79       7.37
C       6.36      -2.04       9.46
H       9.46      -4.43       9.73
C       5.01      -1.96       9.56
C       3.79      -1.94       9.54
C       1.54      -1.16       8.66
H       1.79      -0.25       8.12
N      10.71      -2.43       7.53
N      10.73      -3.58       8.27
N       0.28      -1.64       8.69
C       9.61      -1.74       7.85
H       1.75      -3.89      10.47
N       0.28      -2.79       9.44
C       8.86      -2.45       8.82
