36

H       0.39      15.54       0.48
H      -0.38       8.23      -0.48
H      -0.83      12.83       3.63
H       0.83      10.93      -3.63
H      -1.80      10.21      -0.28
H       1.80      13.55       0.28
C       0.26       6.44      -4.77
C      -0.26      17.32       4.77
C       0.11      16.39       2.44
C      -0.11       7.37      -2.44
C       0.12      15.34       1.52
C      -0.12       8.42      -1.52
C      -0.22      14.05       1.94
C       0.22       9.72      -1.94
C      -0.58      13.83       3.27
C       0.58       9.94      -3.27
C      -0.60      14.89       4.17
C       0.60       8.87      -4.17
C      -0.25      16.19       3.77
C       0.25       7.57      -3.77
C      -1.14      11.95       0.80
C       1.14      11.82      -0.80
C      -0.99      10.93      -0.15
C       0.99      12.83       0.15
C       0.14      10.83      -0.97
C      -0.14      12.93       0.97
Cl       0.53      17.98       1.89
Cl      -0.53       5.78      -1.89
Cl      -1.02      14.59       5.82
Cl       1.02       9.17      -5.82
Cl      -2.62      11.99       1.70
Cl       2.62      11.77      -1.70
O      -0.88       6.04      -5.16
O       0.88      17.72       5.16
O       1.39       6.01      -5.13
O      -1.39      17.75       5.13
