14

H       3.10       2.13       9.41
N       1.26       4.49       6.98
N      -0.26       3.43       8.18
H      -1.22       3.12       8.47
O       0.11       1.43      10.17
H      -0.86       4.87       6.72
O       2.36       1.60       9.97
C      -0.04       4.35       7.21
C       0.96       2.95       8.61
O       3.90       4.29       6.85
C       1.91       3.63       7.84
O       4.03       2.84       8.58
C       1.13       1.94       9.64
C       3.37       3.57       7.76
