63

C      -2.60      -0.22      13.73
H       3.22      -3.76       9.55
C       8.20       1.08      12.27
H       3.81      -1.42      13.12
C       7.27       0.31      11.58
H       1.18      -9.64      11.34
C       6.23      -0.19      13.68
H       1.45      -7.22      10.95
C       7.21       0.58      14.30
H      -1.09      -4.82      13.43
C       0.17      -8.49      14.39
H       1.08      -1.34      12.12
C       2.12      -3.23      11.97
H      -2.60       0.80      14.12
C      -3.83      -2.15      12.97
H       8.99       1.62      11.75
C       6.64      -2.19       7.79
H       7.31       0.22      10.50
C       0.30     -10.87      13.60
H       5.48      -0.69      14.30
C       0.47      -9.41      13.37
H       7.24       0.70      15.38
C       0.78      -6.65      12.93
H      -0.17      -8.86      15.35
C       0.31      -7.13      14.16
H      -4.78      -2.63      12.76
C       0.88      -5.20      12.69
H       7.33      -1.78       8.52
C      -0.16      -2.99      12.79
H       0.07      -6.41      14.95
C       2.03      -4.62      12.12
H       2.88      -5.25      11.84
C      -1.40      -2.21      13.00
H      -0.45      -0.40      13.73
C      -1.40      -0.89      13.49
H      -2.65      -3.81      12.27
C      -2.64      -2.81      12.71
H       7.96      -1.93       6.08
C       5.36      -2.60       8.20
H       3.51      -3.50       7.47
C      -5.14      -0.20      13.82
H       4.27      -3.50       5.09
C       6.26      -0.36      12.29
C       5.32      -1.24      11.56
C       6.99      -2.27       6.45
C       4.94      -2.41       9.60
C       4.50      -3.13       7.22
C       3.79      -3.02      10.13
C       4.92      -3.16       5.90
O      -5.08       1.07      14.10
C       4.13      -1.73      12.13
N       5.69      -1.56      10.31
C       3.36      -2.65      11.41
N       8.19       1.19      13.61
C      -3.83      -0.85      13.49
N       6.14      -2.73       5.51
C       0.94      -8.94      12.14
O       0.10     -11.26      14.82
C       1.11      -7.57      11.92
O       0.36     -11.69      12.65
O      -6.20      -0.88      13.81
C      -0.19      -4.37      13.01
C       1.03      -2.41      12.31
