32

H      10.98      10.64       0.99
N      10.38       6.97      -1.93
C      10.79       4.85      -4.90
H      10.66       7.81      -2.43
C       9.89       3.48      -3.13
H      10.76       9.03      -0.68
C      10.34       5.81      -2.72
N      10.26       8.37      -0.09
C       8.63       8.27       1.75
H       7.20       8.45       3.36
H       9.93      11.74       2.96
H      11.13       6.92      -4.40
C       8.47      10.18       3.26
O      11.03       2.48      -6.41
O       6.76      10.24       4.90
C       9.89       4.57      -2.25
C       8.03       8.92       2.82
C      10.36       2.41      -5.34
C       9.56      10.78       2.60
H      11.16       4.96      -5.92
O       9.69       1.39      -4.92
C      10.78       5.95      -4.05
C       7.77      10.82       4.40
C       9.69       8.90       1.06
H       9.54       2.51      -2.78
C      10.34       3.60      -4.45
H       8.29       7.30       1.43
C      10.16      10.15       1.51
O       8.22      11.96       4.82
O       9.56       6.17       0.08
C      10.03       7.09      -0.60
H       9.55       4.46      -1.23
