26

C       2.90      16.56       4.43
C       2.37      16.60       5.73
C       4.68      14.23       7.58
C       4.52      14.60       8.93
C       5.08      13.84       9.95
C       5.85      12.70       9.65
C       6.02      12.33       8.31
C       5.43      13.08       7.29
O       6.20      12.21      11.95
O       7.33      11.01      10.38
H       5.49      14.42       4.98
H       4.41      15.71       3.16
H       1.50      17.22       5.92
H       2.49      15.85       7.73
H       3.97      15.50       9.19
H       4.95      14.12      10.99
H       6.61      11.44       8.08
H       5.55      12.75       6.26
O       2.63      17.13       2.14
O       1.33      18.15       3.70
C       2.25      17.34       3.34
C       6.50      11.91      10.73
C       2.94      15.84       6.74
C       4.07      15.04       6.50
C       4.60      15.01       5.19
C       4.01      15.75       4.17
