44

N       6.63       9.94      15.82
N       6.32       6.27      19.02
N       3.10       9.89      19.85
N       3.01       6.79      14.92
N       7.38       9.90      13.13
N       6.94       6.20      21.70
N       3.77       9.91      22.53
N       3.65       6.75      12.24
O       6.27       9.19      24.01
O       6.32       7.21      10.74
O       5.74       9.40      10.60
O       5.69       7.00      24.21
H       7.48      10.38      15.49
H       6.57       9.71      16.80
H       7.32       6.19      19.21
H       6.14       6.50      18.04
H       3.15      10.81      20.29
H       3.07       9.96      18.84
H       2.97       6.70      15.93
H       2.91       5.90      14.44
H       8.28       9.55      13.48
H       7.43       9.93      12.11
H       6.85       5.32      21.19
H       6.85       6.04      22.71
H       2.77       9.96      22.33
H       3.90       9.72      23.52
H       3.80       6.93      11.24
H       2.65       6.83      12.44
C       5.82       8.10      23.55
C       5.90       8.31      11.24
C       4.87       8.31      15.39
C       5.94       9.13      14.93
C       5.69       7.19      19.89
C       4.09       9.01      20.30
C       4.11       7.54      14.48
C       6.29       9.10      13.57
C       4.75       8.14      19.41
C       5.98       7.14      21.26
C       4.42       9.00      21.67
C       4.43       7.55      13.11
C       5.53       8.31      12.69
C       5.39       8.08      22.12
C       4.63       8.24      16.78
C       4.58       8.25      18.01
