28

O       7.17       9.04      30.13
O       9.40       8.61      30.14
C       8.27       8.82      32.21
C       7.05       8.90      32.89
C       7.05       8.88      34.28
C       8.24       8.80      35.04
C       9.44       8.74      34.31
C       9.48       8.74      32.92
C       8.21       8.79      36.45
C       8.18       8.78      37.67
C       8.16       8.76      39.07
C       6.96       8.69      39.81
H       6.12       8.97      32.34
H      10.43       8.69      32.40
F      10.60       8.67      35.00
F       5.87       8.94      34.94
F      10.52       8.90      39.17
F       5.80       8.63      39.12
C       6.92       8.66      41.19
C       9.35       8.81      41.22
C       9.35       8.82      39.84
H       5.97       8.59      41.72
C       8.13       8.72      41.90
H      10.29       8.87      41.77
C       8.12       8.70      43.40
C       8.29       8.82      30.71
O       9.23       8.91      43.99
O       7.00       8.48      43.97
