16

O      17.22       6.78      30.90
O      14.94       6.61      30.72
S      14.66      11.50      27.54
S      17.60       9.13      29.33
C      16.19      13.45      26.37
C      16.06       7.17      30.49
C      17.27      11.52      27.72
C      14.98       9.11      29.14
C      16.20      12.22      27.18
C      16.05       8.40      29.69
C      15.43      10.24      28.43
C      16.83      10.38      28.44
Cl      18.93      11.90      27.59
Cl      13.33       8.72      29.28
O      17.31      14.00      26.11
O      15.03      13.86      26.01
