36

C      -0.92      10.23      12.15
C      -0.34      10.88      11.07
C       0.99      11.31      11.18
C       1.67      11.10      12.39
C       1.01      10.45      13.42
C       0.67      12.96       4.27
C       1.39      13.01       5.46
C       0.69      12.94       6.67
C      -0.71      12.87       6.64
C      -1.35      12.86       5.41
C       6.76      14.19       7.85
C       5.40      13.93       7.89
C       4.85      13.34       9.03
C       5.70      13.05      10.11
C       7.05      13.34       9.99
C       1.63      11.99      10.03
N      -0.26      10.01      13.30
C       1.45      12.82       7.93
C       3.41      12.98       9.05
N       0.85      12.19       8.95
H      -1.95       9.86      12.11
H      -0.90      11.05      10.16
H       2.70      11.43      12.52
H       1.50      10.26      14.38
N       2.93      12.33      10.12
N       2.71      13.29       7.95
H       2.48      13.07       5.44
H       1.19      12.97       3.31
H      -2.44      12.84       5.34
H      -1.29      12.82       7.56
H       4.76      14.16       7.03
N      -0.67      12.87       4.24
H       7.24      14.64       6.98
H       7.76      13.11      10.79
H       5.31      12.61      11.03
N       7.58      13.89       8.88
