17

O      20.96       8.67      11.56
H      24.80       8.30      10.91
C      22.70      12.55       8.38
C      24.63      11.07       8.94
H      27.04      10.32       9.09
O      21.53      12.99       8.69
H      25.25      11.68       8.28
C      23.03       9.52      10.63
C      23.28      11.40       9.13
O      23.36      13.07       7.43
H      21.43      10.89      10.11
C      24.37       9.18      10.43
C      22.47      10.63       9.98
O      26.48       9.59       9.49
C      22.23       8.73      11.60
C      25.19       9.96       9.60
O      22.88       8.09      12.52
