16

O      25.92      13.36      14.67
C      27.06      13.80      14.30
H      24.94      15.48      13.33
C      27.06      19.96      10.03
C      26.36      16.84      12.25
S      28.57      15.64      12.89
S      25.54      18.11      11.43
O      25.92      20.48       9.77
O      28.20      20.39       9.64
C      25.96      15.75      13.05
C      28.15      18.01      11.27
C      27.06      15.01      13.47
C      27.06      18.74      10.85
C      27.76      16.92      12.07
H      29.17      18.28      10.99
O      28.20      13.30      14.57
