44

H       6.49       9.06      10.62
C       7.87       8.07      13.16
C       8.93       7.53      13.90
C       8.73       6.63      14.94
C       7.41       6.24      15.29
C       6.34       6.66      14.44
C       6.58       7.57      13.41
C       6.06       4.49      19.23
C       5.47       4.39      20.49
C       7.22       5.76      21.41
C       9.14      10.09      12.24
C       7.81       5.86      20.16
C       3.86       5.06      23.00
C       7.20       5.28      19.02
C       7.07       5.54      16.52
C       7.71       5.67      17.71
C       6.00       5.08      21.60
C       8.10       9.14      12.20
H       3.12       4.69      22.30
H       6.65       6.02      24.43
C       4.92       6.20      14.69
C       5.66       5.76      24.08
H       9.95       7.82      13.64
C       9.96       6.09      15.64
N       7.93      10.60      10.48
H       8.62       6.28      17.75
H       5.60       3.97      18.39
H       5.74       7.94      12.83
H       4.57       3.80      20.61
H       6.12       5.01      16.52
N       9.03      10.96      11.22
H       8.72       6.45      20.03
H       7.67       6.29      22.25
H       9.93      10.20      12.98
N       3.49       5.49      24.22
N       4.59       5.91      24.89
H       4.26       6.58      13.90
H       4.84       5.10      14.69
H       4.54       6.56      15.65
H      10.80       6.05      14.93
H      10.28       6.74      16.48
H       9.79       5.09      16.05
C       7.37       9.52      11.06
C       5.25       5.22      22.84
