21

H      16.41       5.35       6.31
H      18.57       4.51       5.32
H      17.31       4.63       4.08
H      18.58       5.88       4.18
H      17.67       8.90       9.13
H      16.41       6.71       5.16
C      14.74       7.69       7.70
C      17.37       7.55       7.53
C      18.16       8.27       8.39
C      19.55       8.23       8.34
C      15.95       7.62       7.62
C      20.78       8.20       8.29
C      13.30       7.78       7.80
C      22.20       8.13       8.21
C      17.05       6.00       5.71
C      17.94       5.21       4.77
O      17.93       6.75       6.60
O      12.74       8.65       7.07
O      22.86       8.86       9.04
O      12.75       6.97       8.61
O      22.69       7.35       7.32
