18

C       5.42       0.56      11.54
N       3.79       3.63      10.59
N       9.22       0.98       8.68
C       4.74       1.84      11.34
H       6.98      -2.76      12.54
N       3.42       3.48      11.84
N       8.67       0.22       9.64
C       6.52      -1.81      12.27
H       4.83      -1.89      13.65
N       4.00       2.37      12.33
N       7.13      -1.09      11.34
C       5.34      -1.34      12.86
C       7.44       0.72       9.90
N       4.82      -0.17      12.50
N       7.23       1.77       9.08
C       6.61       0.09      10.92
N       4.63       2.62      10.26
N       8.36       1.91       8.34
