42

H       5.99       3.19      19.42
H       4.32       2.71      19.92
H       6.77       3.32      23.05
H       7.57       4.07      21.65
H       7.95       2.01      20.62
H       7.45       1.21      22.13
H       3.46       3.87      21.74
H       4.52       4.53      23.01
H       2.08       2.45      22.97
H       2.72       3.07      24.52
H       7.01       0.59      19.14
N       5.89       1.51      20.72
H       5.23       0.59      18.95
N       5.49       3.70      21.38
N       4.18       2.43      23.07
C       5.36       2.81      20.24
C       6.82       3.33      21.95
C       7.15       1.93      21.37
N       4.64      -1.05      20.95
C       4.38       3.69      22.31
C       6.05       0.47      19.68
C       2.87       2.31      23.73
N       2.92      -0.13      23.30
N       3.32      -2.32      22.64
H       2.82      -1.81      24.60
H       4.50      -1.33      24.10
H       2.04      -1.94      20.97
H       1.24      -2.69      22.37
C       3.45      -1.43      23.78
H       1.36       0.17      21.89
H       5.36      -2.49      22.28
H       4.29      -3.15      21.01
C       4.43      -2.31      21.71
C       2.00      -1.95      22.07
C       1.66      -0.55      22.65
H       0.86      -0.63      23.40
C       5.95      -0.93      20.29
C       2.76       0.91      24.34
H       6.73      -1.07      21.05
H       6.10      -1.69      19.50
H       1.81       0.79      24.88
H       3.58       0.79      25.07
