25

H       3.80       7.71       2.58
H      -0.27       6.58       1.57
H      -0.90       7.18       3.90
H       3.80       8.25       0.38
H       4.55       7.62      -1.91
H       1.63       4.49      -2.03
H       0.88       5.07       0.27
C       2.28       7.94       4.06
C       2.74       7.59       2.79
C       1.83       7.08       1.85
C       0.50       6.94       2.26
C       0.13       7.29       3.56
C       3.22       8.50       5.10
C       2.28       6.71       0.49
C       3.33       7.41      -0.14
C       3.75       7.07      -1.42
C       3.13       6.02      -2.11
C       2.09       5.31      -1.49
C       1.67       5.65      -0.20
C       3.53       5.69      -3.52
N       1.00       7.79       4.45
O       2.67       8.88       6.19
O       4.45       8.53       4.85
O       4.54       6.29      -4.01
O       2.81       4.84      -4.14
