122

H       6.75      -1.16      20.05
H       1.89      -1.53      20.50
H       7.03       0.91      20.76
H       8.89       1.69      22.18
H       5.23      -1.05      24.14
H       6.26      -0.84      26.38
H       8.26      -0.28      27.75
H      10.15       1.50      24.32
H      -1.59       2.37      24.81
H       0.21       2.33      23.09
H       0.14      -1.04      26.77
H       2.06      -2.24      25.68
H       3.55      -2.52      23.74
H       2.04       1.11      21.99
H      -2.58      -0.88      15.74
H      -0.93      -0.25      17.49
H       0.16      -3.76      14.09
H       2.31      -4.25      15.35
H       3.84      -3.76      17.22
H       1.22      -0.61      18.56
H       7.97      -1.17      12.59
H       6.02      -0.76      14.06
H       9.69      -3.76      15.56
H       8.48      -4.28      17.61
H       6.74      -3.61      19.25
H       5.00      -0.91      16.38
H      13.55      -2.94      34.84
H      13.94      -2.54      32.41
H      10.58       0.16      34.93
H       9.97       1.35      32.84
H      10.18       1.59      30.37
H      13.36      -1.32      30.30
H      13.87      -3.96      10.52
H      14.54      -3.90       8.12
H      10.44      -1.50       9.68
H      10.15      -0.54       7.40
H      11.04      -0.17       5.10
H      14.23      -2.95       5.84
C      13.28      -1.22       4.01
C      11.73      -1.66      36.45
C      11.79      -2.70      11.67
C      10.32      -2.51      13.38
C      -2.35      -2.60      13.80
C      11.81       0.30      28.73
C      -2.03       0.61      26.76
C      10.61       0.71      26.84
C       4.95      -1.72      19.06
C       3.54      -1.76      19.15
C       2.97      -1.42      20.39
C       3.69      -0.97      21.50
C       5.09      -0.80      21.36
C       5.67      -1.22      20.15
C       6.02      -0.19      22.34
C       7.06       0.64      21.81
C       8.09       1.09      22.60
C       8.15       0.74      23.98
C       7.06       0.01      24.55
C       6.01      -0.44      23.70
C       7.10      -0.31      25.93
C       8.21      -0.01      26.69
C       9.34       0.62      26.10
C       9.28       1.02      24.77
C      -0.83       0.66      25.89
C      -0.80       1.62      24.85
C       0.18       1.59      23.89
C       1.15       0.55      23.88
C       1.14      -0.41      24.95
C       0.16      -0.31      25.97
C       2.06      -1.49      24.88
C       2.90      -1.65      23.80
C       2.91      -0.70      22.74
C       2.05       0.38      22.80
C      -1.29      -2.35      14.80
C      -1.61      -1.36      15.79
C      -0.70      -1.03      16.76
C       0.54      -1.71      16.85
C       0.85      -2.74      15.89
C      -0.07      -3.00      14.84
C       2.07      -3.45      16.06
C       2.93      -3.17      17.10
C       2.65      -2.13      18.03
C       1.46      -1.42      17.88
C       8.98      -2.47      14.01
C       7.90      -1.66      13.56
C       6.81      -1.43      14.38
C       6.73      -2.02      15.68
C       7.76      -2.95      16.06
C       8.86      -3.14      15.21
C       7.71      -3.56      17.34
C       6.76      -3.18      18.25
C       5.78      -2.19      17.92
C       5.75      -1.66      16.64
C      12.03      -1.40      35.01
C      12.99      -2.18      34.30
C      13.21      -1.95      32.96
C      12.46      -0.96      32.25
C      11.49      -0.19      32.98
C      11.32      -0.41      34.36
C      10.70       0.76      32.28
C      10.82       0.90      30.92
C      11.79       0.15      30.20
C      12.62      -0.74      30.86
C      12.11      -2.73      10.23
C      13.28      -3.41       9.79
C      13.65      -3.37       8.47
C      12.92      -2.58       7.53
C      11.74      -1.89       7.98
C      11.34      -2.02       9.33
C      11.05      -1.05       7.06
C      11.53      -0.85       5.79
C      12.70      -1.54       5.35
C      13.35      -2.41       6.20
N      10.51      -2.50      12.05
N      11.31      -2.51      14.28
N      -2.06      -2.81      12.51
N      -1.94       0.23      28.05
N      11.73       0.90      26.12
N      10.60       0.49      28.16
O      14.05      -2.09       3.47
O      13.01      -0.07       3.54
O      11.16      -0.73      37.10
O      12.06      -2.81      36.93
