42

O       3.92      14.89      11.62
O       8.29      19.70       5.83
O       7.44      16.10       6.24
O       5.30      18.30      11.54
H       5.11      16.35      10.87
H       7.61      18.09       6.86
H       4.74      12.56      11.70
H       3.40      12.74      10.60
H       4.43      11.29      10.48
H       7.63      22.19       6.10
H       8.23      23.15       7.48
H       9.03      21.62       6.98
H       8.13      12.74       6.20
H       7.93      11.29       7.23
H       6.64      11.77       6.14
H       4.25      21.53      11.43
H       5.69      22.57      11.58
H       4.43      22.99      10.42
H       8.71      14.55       6.58
H       3.84      19.64      11.09
C       5.40      14.50       9.75
C       7.12      19.95       7.92
C       5.31      13.09       9.71
C       7.18      21.36       8.01
C       6.78      13.00       7.87
C       5.69      21.35       9.83
C       6.89      14.40       7.83
C       5.66      19.95       9.86
C       6.19      15.17       8.79
C       6.38      19.22       8.88
C       6.28      16.59       8.81
C       6.33      17.81       8.85
C       4.76      15.30      10.82
C       7.73      19.19       6.79
C       4.43      12.36      10.67
C       8.07      22.14       7.10
C       7.42      12.16       6.80
C       4.96      22.14      10.87
C       7.74      15.05       6.80
C       4.87      19.25      10.91
N       6.01      12.36       8.80
N       6.45      22.04       8.93
