20

H      23.29       9.82       9.25
H      21.18      12.28      13.50
H      20.28      10.74      13.58
H      22.11       9.76      15.02
H      23.00      11.30      14.94
Br      25.63       8.51      10.15
C      25.21       8.90      13.49
O      24.97       9.06      14.74
O      26.23       8.32      12.99
C      21.06      11.15       9.99
O      21.21      11.00       8.73
O      20.09      11.74      10.58
C      22.11      10.58      10.88
C      24.19       9.45      12.55
C      22.07      10.67      12.27
C      24.23       9.36      11.13
C      23.08      10.12      13.06
C      23.22       9.91      10.33
C      21.28      11.19      13.45
C      22.42      10.57      14.36
