22

H       6.47       2.10       9.36
H       6.62      -2.87       9.22
C       8.25       2.63       7.59
C       8.29      -3.19       7.34
C       8.28       1.13       7.55
C       7.41       0.38       8.40
C       9.12       0.47       6.66
C       6.51       1.01       9.30
C       5.63       0.28      10.07
C       8.30      -1.69       7.41
C       9.13      -0.95       6.58
C       7.43      -1.05       8.34
C       6.57      -1.78       9.20
C       5.67      -1.14      10.02
Br      10.19      -1.82       5.27
Br      10.19       1.46       5.43
Br       4.41       1.20      11.18
Br       4.48      -2.21      11.05
O       9.33       3.23       7.84
O       9.37      -3.80       7.57
O       7.17      -3.74       7.09
O       7.12       3.17       7.37
