14

C       5.00       6.63       7.25
C       4.70       7.36       9.59
C       4.55       5.85       6.07
H       3.02       6.87      10.82
C       3.96       7.42      10.72
H       3.42       5.99       8.48
O       5.51       8.83      11.83
C       4.32       6.61       8.42
O       3.70       4.92       6.27
O       5.03       6.16       4.91
C       4.33       8.31      11.86
O       3.44       8.53      12.74
H       5.62       7.95       9.55
H       5.88       7.26       7.11
