27

O       5.27       9.83       2.13
O       4.18       8.75       3.77
C       4.08      15.50      11.57
C       4.79      15.04      10.33
C       4.07      14.70       9.18
C       4.72      14.20       8.06
C       6.11      14.04       8.09
H       2.98      14.80       9.19
C       6.85      14.40       9.22
H       4.16      13.93       7.17
H       7.93      14.27       9.21
C       6.19      14.90      10.33
C       6.34      12.63       6.16
H       6.75      15.18      11.22
C       6.75      12.69       4.83
H       7.41      13.50       4.52
C       6.31      11.72       3.93
H       6.61      11.75       2.88
H       4.46       9.79       6.02
C       5.47      10.68       4.35
C       5.10      10.62       5.70
H       5.24      11.53       7.66
C       5.52      11.58       6.61
C       4.95       9.68       3.36
O       2.81      15.56      11.56
O       4.81      15.81      12.58
O       6.84      13.61       6.99
