20

H      16.00       6.57      20.11
H      13.41       1.89      19.76
H      12.54       2.61      21.14
H      10.89       3.67      19.54
H      11.78       2.96      18.17
Br      14.65       8.36      18.34
C      11.93       6.44      17.64
O      11.01       5.59      17.37
O      12.00       7.64      17.21
C      15.92       4.12      21.26
O      16.97       4.81      21.51
O      15.65       2.95      21.70
C      14.90       4.73      20.37
C      12.99       5.94      18.55
C      13.74       4.07      19.99
C      14.18       6.61      18.96
C      12.83       4.66      19.11
C      15.10       6.02      19.83
C      12.92       2.80      20.13
C      11.89       3.47      19.13
