42

H       2.12       3.13      20.35
H      -0.44      -0.52      22.39
H      -0.48       2.31      19.55
H       2.17       0.28      23.16
H       5.18       0.33      17.96
H       3.99      -0.94      17.67
H       4.00       0.52      16.65
H       2.15       0.72      18.24
H       3.37       1.91      18.66
H       4.14       0.55      20.57
H       3.15      -0.82      20.06
H      -3.47       4.67      22.51
H      -2.19       4.96      23.70
H      -2.29       5.97      22.24
H      -0.47       4.37      21.92
H      -1.77       3.95      20.81
H      -2.45       2.04      22.18
H      -1.44       2.56      23.53
C       1.39       4.91      25.36
C       0.28      -2.58      17.64
C       0.11       1.87      20.36
C       1.58       0.72      22.35
C       1.55       2.31      20.79
C       0.13       0.30      21.95
C       1.38       3.94      24.30
C       0.29      -1.60      18.68
C      -0.32       1.80      21.87
C       2.01       0.81      20.83
C       1.14       2.24      22.31
C       0.55       0.35      20.42
C       1.35       3.16      23.36
C       0.34      -0.68      19.48
C       3.20       0.28      20.08
C       3.17       0.83      18.64
C       4.14       0.15      17.68
C      -1.51       2.54      22.43
C      -1.50       3.98      21.88
C      -2.41       4.95      22.62
O       0.25       5.30      25.78
O       1.42      -2.96      17.21
O       2.52       5.29      25.79
O      -0.86      -2.98      17.22
