16

O      18.52      16.60      26.43
Br      17.87      21.06      27.65
Br      22.69      16.90      29.41
O      17.47      18.59      26.11
C      20.38      17.69      28.05
O      22.01      21.32      30.70
C      18.35      17.85      26.64
C      19.32      18.49      27.60
C      21.32      19.50      29.35
C      19.25      19.82      28.07
C      21.37      18.16      28.90
C      20.24      20.30      28.92
C      22.32      20.17      30.24
H      20.19      21.32      29.29
H      20.41      16.66      27.70
O      23.41      19.55      30.47
