22

O       1.83       4.22       0.30
O       2.10       1.93      -1.02
H       1.02       4.82      -5.80
H       2.79       4.74      -5.83
H       2.91       6.91      -4.60
H       1.14       6.98      -4.54
H       1.52       5.09       0.63
H       2.41       1.21      -1.61
C       2.03       6.79      -1.01
C       1.90       1.77      -3.91
C       1.95       3.05      -3.18
C       1.98       5.52      -1.75
C       1.92       4.28      -3.84
C       1.92       4.29      -1.06
C       2.01       5.48      -3.15
C       2.01       3.07      -1.77
C       1.92       4.95      -5.20
C       2.01       6.32      -4.41
O       2.96       7.62      -1.28
O       1.13       6.99      -0.10
O       2.80       0.89      -3.62
O       0.97       1.60      -4.76
