20

N       3.56       0.81       7.38
H      -3.48       2.70       8.22
C      -2.87       1.87       7.84
H       3.48       2.70       8.22
H      -1.00       2.81       8.23
C       2.87       1.87       7.84
C      -1.48       1.92       7.84
H       1.00       2.81       8.23
H      -1.00      -1.15       6.45
C       1.48       1.92       7.84
C      -0.74       0.83       7.35
H       1.00      -1.15       6.45
H      -3.47      -1.06       6.51
C       0.74       0.83       7.35
C      -1.48      -0.26       6.86
H       3.47      -1.06       6.51
C       1.48      -0.26       6.86
C      -2.87      -0.23       6.89
C       2.87      -0.23       6.89
N      -3.56       0.81       7.38
