20

F       7.66       9.70       7.45
H       2.96       9.81      10.32
H       8.36      12.11       9.56
H       7.77      12.26       7.87
H       3.05      12.29      10.37
C       5.11      13.93       9.67
C       6.19      11.67       9.33
C       5.09      12.44       9.70
C       3.92      11.72      10.06
C       3.87      10.33      10.03
C       4.97       9.56       9.61
C       6.12      10.28       9.27
C       7.54      10.19       8.73
C       7.62      11.76       8.83
C       4.91       8.07       9.53
O       6.25      14.49       9.70
O       3.98      14.52       9.60
O       6.01       7.49       9.23
O       3.80       7.50       9.75
F       8.46       9.51       9.50
