14

H       6.84       6.06       9.97
H       6.85       5.69      12.43
H       3.86       5.32      10.14
H       3.86       6.42      12.29
O       3.78       6.28      14.80
O       3.74       5.45       7.64
O       6.03       5.90      14.76
O       5.98       5.83       7.64
C       4.90       6.11      14.19
C       4.86       5.63       8.22
C       5.89       5.86      10.48
C       5.90       5.88      11.93
C       4.82       5.59       9.70
C       4.83       6.15      12.71
