36

C       5.73       6.30      10.81
C      -1.58       7.89      11.20
C       5.94       6.46      13.00
C      -1.47       7.92      13.41
H       3.62       7.87      13.78
H       1.27       8.41      13.85
H      -0.75       4.22      11.12
H       3.17       4.27       8.56
H       1.02       5.84       8.53
H       1.89       3.02      10.84
N       7.04       6.38      11.09
N      -2.68       8.51      11.67
N       7.17       6.47      12.48
H       4.46       5.94       9.38
N      -2.61       8.52      13.05
H      -0.75       7.09       9.62
H       6.59       6.65      14.79
H      -0.36       7.26      14.81
O       0.09       3.98      10.69
O       2.98       5.13       8.99
O       0.27       5.70       9.14
O       2.71       3.45      10.53
C       4.96       6.34      12.00
C      -0.75       7.49      12.28
C       2.56       5.84      11.33
O       5.36       6.33       9.52
C       1.19       6.12      11.41
O      -1.39       7.81       9.87
C       3.52       6.46      12.15
O       5.73       6.56      14.34
C       0.64       7.05      12.28
O      -1.15       7.82      14.73
C       2.95       7.34      13.10
C       1.59       7.63      13.16
C       0.81       5.13      10.33
C       2.38       4.78      10.25
