50

H       3.95       7.35       1.05
H       2.80       5.59      -1.07
H       6.09       3.66       0.95
H       3.49       7.21      -1.20
H       7.09       5.95      -1.30
H       6.12       7.42      -1.14
H       7.15       5.73       1.03
H       4.15       3.59      -1.28
H       5.92       3.65      -1.37
H       4.35       3.43       1.05
H       2.64       4.08       2.13
H       2.08       4.23       0.44
H       0.58       5.26       2.91
H      -0.00       5.36       1.24
H      -0.05       2.83       1.11
H      -1.07       3.42       2.44
H       0.53       2.73       2.78
H       7.52       9.15       1.67
H       8.34       7.75       0.96
H       7.18       7.89       3.80
H       7.98       6.48       3.13
H      10.13       7.80       2.84
H       9.58       7.81       4.53
H       9.32       9.24       3.51
C       3.76       6.31       0.76
C       5.01       5.51       1.24
C       5.12       4.08       0.63
C       5.04       4.13      -0.91
C       5.07       5.44       2.69
C       4.91       5.63      -2.84
C       4.89       5.63      -4.05
C       4.88       5.58      -5.50
C       5.22       5.52       5.33
C       3.66       6.21      -0.78
C       6.18       6.36      -0.84
C       6.25       6.29       0.70
C       5.14       5.41       3.90
C       4.95       5.60      -1.38
C       2.03       4.70       1.44
C       0.59       4.74       1.94
C      -0.03       3.36       2.07
C       7.58       8.05       1.69
C       7.96       7.58       3.09
C       9.32       8.14       3.51
O       3.74       5.48      -6.06
O       6.01       5.62      -6.08
O       4.11       5.59       5.96
O       6.39       5.56       5.85
O       2.52       6.04       1.42
O       6.28       7.60       1.27
