16

C       8.47      12.88       4.47
C       8.83      10.23       3.63
H       8.35      13.91       4.81
C       9.74      10.81       4.51
H       6.69      12.86       3.24
C       7.55      12.30       3.60
C       6.75      10.35       2.24
H       8.96       9.20       3.30
H      10.60      10.24       4.88
O      11.46      11.99       6.33
O      10.42      14.00       6.12
O       5.75      11.06       1.89
O       6.99       9.16       1.85
C      10.56      12.76       5.86
C       9.57      12.13       4.93
C       7.73      10.97       3.18
