22

N       5.45       8.70       2.05
N       9.28      14.65       9.03
N       6.62       8.00       1.97
H       4.91      10.56       2.89
Cl       9.96      13.64       4.28
Cl       9.03      10.38       4.84
Cl      11.50      12.27       7.04
Cl       9.20       8.16       2.44
C      10.32      13.37       7.56
Cl       6.29      13.02       6.45
C       7.56      13.00       5.26
C       8.77      13.54       5.53
C       7.22      12.18       4.11
C       7.61       8.73       2.51
F       7.57      15.51       7.76
C       7.70      10.93       3.88
C       7.08       9.94       3.02
F       6.14      12.61       3.38
C       5.71       9.85       2.67
C       8.64      14.72       7.86
C       9.22      13.92       6.87
N      10.35      13.80       8.83
