27

H       7.52       5.62       5.61
H       7.75       9.94       5.45
H       9.23       4.09       1.69
H       9.15       7.24      -1.28
H      11.18      10.82       4.38
H      10.99      10.91       0.05
C       7.43       6.69       5.76
C       7.97       7.75       5.02
C       7.56       8.91       5.70
C       9.19       4.69       0.79
C       9.20       6.09       0.65
C       9.18       6.30      -0.74
C      11.28      11.05       3.33
C      10.74      10.36       2.23
C      11.19      11.08       1.11
C       9.93       9.16       2.37
C       8.74       7.82       3.78
C       9.24       7.11       1.69
N       6.81       8.56       6.75
N       6.74       7.18       6.81
N       9.14       5.12      -1.38
N       9.18       4.11      -0.43
N      11.95      12.11       1.51
N      12.02      12.08       2.89
N       9.39       8.98       3.59
N       8.72       6.80       2.90
N       9.81       8.29       1.35
