22

H       5.83       3.71       5.11
C       7.90       8.18       6.47
C       8.03       2.75       2.67
C       8.08       7.12       5.41
C       9.51       6.13       3.66
C       9.22       7.16       4.54
C       7.24       6.02       5.32
C       7.51       4.92       4.45
C       8.66       4.98       3.58
C       8.85       3.87       2.70
C       6.95       2.74       3.59
C       6.68       3.78       4.44
C       8.16       1.67       1.64
Cl      10.94       6.26       2.70
Cl      10.26       8.53       4.53
Cl       5.83       5.89       6.32
O       6.73       8.60       6.72
O       8.97       8.51       7.06
O       7.04       1.21       1.26
O       9.32       1.34       1.23
F       9.84       3.92       1.79
F       6.15       1.66       3.66
