18

H      -5.91       6.67       6.29
O      -4.72       9.57       1.00
O      -3.36       8.53       2.49
O      -6.77       9.21       8.03
O      -8.04       7.77       6.39
O      -5.62       7.46       6.80
H      -6.56      11.47       4.54
H      -4.51       8.59       4.88
H      -6.35       9.94       2.80
S      -6.86       8.50       6.79
C      -6.39       9.60       5.45
C      -6.96      10.82       5.32
C      -5.37       9.15       4.50
C      -5.47       9.44       3.19
C      -4.45       9.15       2.17
C      -7.94      11.51       6.19
O      -7.66      12.73       6.41
O      -8.97      10.89       6.63
