76

N      10.43       3.14       9.41
N       9.47      -2.06      15.40
N       7.72       3.35      11.92
N       2.25      -2.41      12.70
N       5.31       3.36      15.03
N       4.73      -2.57       9.70
N      12.83      -2.75       5.10
N       7.37       3.06       5.53
N      10.43      -2.62       8.20
N       9.51       2.71       2.32
N       5.36      -2.78       2.60
N       4.70       3.05       8.03
N       7.69      -2.83       5.74
N       2.25       2.96       5.04
H      10.02       0.26       8.83
H       5.11       0.25       8.84
C      11.93       0.02       3.08
C       3.18       0.13       3.07
C      11.99       0.56      14.55
O      13.12      -0.02       3.51
O      11.53       0.07       1.88
O       1.99       0.30       3.47
O       3.59      -0.06       1.89
C       3.15       0.45      14.57
C       8.27       0.19       7.61
C       6.85       0.21       7.61
C       6.20       0.26       8.84
C       6.86       0.31      10.07
C       8.27       0.33      10.06
C       8.93       0.26       8.83
C      10.95       0.53      13.46
C       9.91      -0.40      13.46
C       9.04      -0.50      12.33
C       9.13       0.42      11.27
O       1.96       0.34      14.17
O       3.57       0.60      15.76
C      10.15       1.40      11.32
C      11.07       1.43      12.39
C      10.28       2.37      10.28
C      12.11       2.41      12.37
C       9.71      -1.31      14.54
C       6.00       0.35      11.27
C       5.01      -0.65      11.43
C       8.12      -1.59      12.27
C       4.10      -0.60      12.50
C       5.17       1.40      13.34
C       6.06       1.38      12.23
C       4.89      -1.72      10.49
C       4.18       0.41      13.47
C       6.97       2.46      12.06
C       3.09      -1.60      12.61
C      10.89       0.03       4.17
C       9.87       0.98       4.22
C       9.01       1.06       5.35
C       9.11       0.12       6.39
C      10.11      -0.88       6.31
C      11.01      -0.91       5.22
C       9.70       1.93       3.16
C      10.26      -1.85       7.34
C      12.01      -1.92       5.16
C       8.11       2.16       5.45
C       4.20       0.16       4.18
C       4.10       1.15       5.17
C       5.00       1.18       6.26
C       5.99       0.18       6.40
C       6.06      -0.83       5.43
C       5.19      -0.83       4.30
C       3.08       2.15       5.09
C       6.96      -1.93       5.60
C       5.28      -1.89       3.35
C       4.86       2.22       7.22
O      13.19       0.60      14.14
O      11.58       0.51      15.75
C       5.25       2.47      14.28
N      12.97       3.20      12.35
N       7.39      -2.49      12.20
