18

C      20.82      14.38      10.43
O      21.96      14.06       9.94
C      21.20      18.36      16.77
O      18.50      15.54      12.11
O      23.51      17.40      14.96
O      20.06      18.63      17.30
H      17.96      15.97      12.80
H      24.04      16.97      14.27
S      22.43      15.69      12.21
C      19.81      15.75      12.38
C      22.20      17.21      14.68
C      20.86      15.25      11.60
C      21.16      17.66      15.49
C      21.70      16.53      13.54
C      20.31      16.48      13.50
O      19.67      13.99      10.01
O      22.35      18.64      17.26
S      19.58      17.27      14.85
