27

C      12.73       7.06       5.42
C      10.51      10.06       4.39
C      14.98       6.80       8.55
H      10.82       8.14       3.45
O       8.97      11.65       3.55
O      16.43       4.92       8.60
C      11.98       8.37       5.28
O       9.21       9.68       2.44
H      14.64       5.42       6.93
C      13.23       8.53       7.24
H      11.98      11.17       7.28
O      16.12       6.12      10.51
C      11.09       8.78       4.29
H      10.36      11.89       5.50
C      13.51       7.26       6.70
C      14.39       6.40       7.34
H      13.59       9.92       8.87
C      12.30       9.23       6.36
C      11.73      10.50       6.45
H      15.15       8.34      10.04
C      10.84      10.91       5.46
H      12.04       6.20       5.49
C      13.81       8.94       8.45
H      13.39       6.86       4.56
C      14.68       8.06       9.10
C      15.92       5.88       9.27
C       9.50      10.49       3.38
