10

C      -3.16       7.49      15.59
C      -7.24       2.25      15.88
C      -3.94       6.29      15.59
C      -6.26       3.30      15.88
C      -4.66       5.31      15.68
O      -3.51       8.39      14.76
C      -5.49       4.25      15.79
O      -8.20       2.38      16.71
O      -2.20       7.54      16.43
O      -7.06       1.31      15.04
