25

H       7.15       1.01       6.49
H       9.50       0.49       7.97
H       7.18       3.70       7.45
H       8.75       4.46       5.20
H      11.07       1.27       5.73
C       9.96       4.19      11.67
C       9.33       1.37       7.34
C       8.02       1.67       6.54
C       8.55       1.35       2.78
C       9.80       3.58      10.38
C      10.20       1.79       6.12
C       8.89       2.09       5.29
C      10.22       3.28       6.63
C       9.34       2.85       7.89
C       8.90       3.58       5.83
C       8.03       3.15       7.05
C       8.68       1.71       3.94
C       9.59       3.24       9.23
C       8.50       0.71       1.50
C      11.38       4.11       6.70
N      12.33       4.78       6.77
O       7.33       0.45       1.01
O       8.92       4.41      12.35
O      11.17       4.52      12.00
O       9.60       0.40       0.97
