20

H       7.04      10.65       3.96
H       7.54      12.01       6.41
H       3.60      12.23       7.09
H       3.09      10.87       4.62
H       5.01      12.56       3.36
H       5.62      10.32       7.67
C       4.08      11.13       5.03
C       5.14      12.04       4.32
C       5.42      12.78       5.69
C       5.51      14.27       5.75
C       5.14       8.62       5.29
C       6.55      11.75       6.01
C       6.27      11.01       4.65
C       5.20      10.10       5.35
C       5.49      10.84       6.72
C       4.35      11.87       6.38
O       6.66      14.79       5.55
O       4.42      14.91       5.92
O       6.26       8.01       5.39
O       4.00       8.07       5.18
