42

C      12.35       4.54       5.46
O      18.75       3.57       5.75
C      11.58       4.90       6.58
H       9.76       4.00       3.26
C       9.55       4.62       5.30
H       9.57       5.24       7.36
C      11.55       5.58       8.88
H      12.30       5.76       9.65
C      13.83       4.55       5.50
H      10.98       6.50       8.70
C      16.62       4.55       5.36
H      10.88       4.77       9.20
C      14.53       5.72       5.15
H      16.48       6.60       4.76
C      15.92       5.72       5.06
H      16.54       2.50       5.99
C      15.96       3.38       5.76
H      12.70       3.38       1.27
C      14.56       3.39       5.80
H      11.23       2.71       2.04
C      11.88       3.59       1.96
H      11.30       4.44       1.59
C      14.50       1.07       6.39
H      13.72       0.32       6.58
C      14.39       8.00       4.45
H      15.11       0.75       5.53
C      18.11       4.53       5.21
H      15.13       1.17       7.28
O       7.55       4.22       4.12
H      13.60       8.72       4.23
O      12.29       5.20       7.71
H      15.06       8.40       5.23
O      13.74       6.80       4.88
H      14.98       7.81       3.53
O      12.51       3.90       3.21
C       8.07       4.68       5.19
O      13.80       2.28       6.10
C      11.69       4.22       4.26
O       7.43       5.21       6.17
O      18.61       5.49       4.53
C      10.29       4.25       4.17
C      10.18       4.95       6.51
