20

C       5.10       8.87       2.00
C       4.21       9.94       1.97
H       1.09      13.81       2.18
H       4.67      13.49      -0.02
C       7.39       7.90       1.67
H       6.44      12.46       1.36
H       8.02      10.53       1.44
H       4.73       7.87       2.19
H       3.14       9.77       2.11
N       3.79      12.30       1.55
N       2.63      12.34       2.27
N       2.76      14.08       0.84
C       2.04      13.44       1.81
C       3.86      13.34       0.69
C       4.70      11.22       1.70
O       6.85       6.72       1.65
C       6.07      11.45       1.53
O       8.64       8.05       1.61
C       6.95      10.37       1.57
C       6.47       9.07       1.76
