46

O       3.03      30.69      17.45
H       3.31      37.56      21.27
H       3.31      36.27      19.16
H       0.85      39.30      17.35
O       1.09      30.67      16.29
H       3.31      32.91      15.14
O       3.03      40.66      22.04
H       3.31      35.38      15.09
H       0.85      36.27      14.63
H       0.85      35.44      18.61
O       1.09      39.67      22.64
H       3.31      40.54      14.18
H       3.31      39.35      16.35
H       0.14      40.97      20.38
H      -0.02      40.98      18.73
H       0.14      31.97      18.54
H      -0.02      33.40      19.38
H       0.14      38.06      11.67
H      -0.02      36.63      12.49
C       2.05      39.86      11.91
C       2.05      31.28      16.87
C       2.05      39.87      21.82
C       2.74      37.92      20.42
C       2.76      37.21      19.23
C       2.09      37.71      18.10
C       1.39      38.92      18.21
C       1.32      39.63      19.42
C       2.03      39.12      20.53
C       1.39      34.88      17.85
C       1.32      33.48      17.86
C       2.03      32.77      16.87
C       2.74      33.47      15.89
C       2.76      34.86      15.86
C       2.09      35.58      16.86
C       1.39      37.21      14.54
C       1.32      37.90      13.32
C       2.03      39.12      13.20
C       2.74      39.62      14.29
C       2.76      38.94      15.51
C       2.09      37.72      15.64
N       2.11      37.00      16.87
N       0.62      40.83      19.50
N       0.62      32.81      18.86
N       0.62      37.37      12.24
O       1.09      40.67      11.67
O       3.03      39.66      11.11
