24

C       0.87      -0.23       1.71
C      -0.87       0.23      -1.71
C       1.16       1.06       2.19
C      -1.16      -1.06      -2.19
C       1.79       1.20       3.42
C      -1.79      -1.20      -3.42
H       2.12      -1.92       4.41
C       0.21      -0.47       0.43
C      -0.21       0.47      -0.43
H      -2.12       1.92      -4.41
H       1.03      -2.34       2.21
H      -1.03       2.34      -2.21
H       0.90       1.95       1.63
H      -0.90      -1.95      -1.63
H       2.03       2.18       3.83
N       2.13       0.15       4.20
H      -2.03      -2.18      -3.83
N      -2.13      -0.15      -4.20
H       0.07      -1.53       0.18
H      -0.07       1.53      -0.18
C       1.85      -1.09       3.75
C      -1.85       1.09      -3.75
C       1.24      -1.31       2.52
C      -1.24       1.31      -2.52
