13

C       6.01      11.94       5.28
C       6.08      11.62       3.80
H       7.28      14.08       7.62
H       4.51      11.06       8.21
H       4.56      10.42       5.76
H       7.42      13.57       5.14
N       5.90      12.58       7.99
O       5.27      10.73       3.38
O       6.93      12.29       3.14
C       6.70      13.28       7.16
C       5.15      11.58       7.49
C       5.18      11.23       6.14
C       6.78      12.99       5.80
