45

N      19.42      18.78       6.13
N      20.60      18.26       5.62
N      13.53       6.07      12.79
N      13.98       5.63      11.56
H      25.93      10.39      16.75
H      24.36      14.14      18.27
N      22.11      13.40      14.87
N      22.62      11.11      14.39
N      23.55      11.12      15.33
N      23.01      13.41      15.83
H      21.85      16.64       6.15
H      18.16      18.26       7.75
H      15.51       6.26      10.23
H      14.13       7.61      14.12
C      20.90      12.24      13.13
C      19.99      13.15      11.28
C      19.08      11.30      12.19
N      17.80       9.62      11.01
N      17.43       9.98      13.36
N      16.89       8.67      11.00
N      16.50       9.04      13.35
N      21.14      14.37       9.54
N      18.85      14.89      10.05
N      18.86      15.83       9.13
N      21.14      15.29       8.60
C      25.72      11.30      17.30
C      24.72      12.27      17.07
C      24.92      13.23      18.08
C      20.96      17.21       6.37
C      20.00      17.02       7.39
C      19.06      18.04       7.19
C      15.00       6.42      11.17
C      15.25       7.37      12.17
C      14.29       7.10      13.17
C      21.94      12.25      14.19
C      23.72      12.27      16.03
C      18.04      10.24      12.18
C      16.25       8.40      12.18
C      19.99      14.20      10.23
C      20.00      16.00       8.41
N      20.95      13.21      12.21
N      19.02      12.22      11.22
N      19.99      11.25      13.17
N      25.95      12.86      18.85
N      26.45      11.67      18.36
