20

F       8.40       3.43      12.51
F       4.89      -3.40      16.03
H       8.23       0.88      12.69
H       5.09      -0.85      15.88
H       7.95      -3.58      12.97
H       8.17      -1.11      12.81
H       5.44       3.61      15.67
H       5.24       1.15      15.85
N       6.85       3.56      14.16
N       6.49      -3.53      14.43
C       7.59       2.79      13.37
C       7.57       1.41      13.38
C       5.73      -2.76      15.20
C       5.76      -1.37      15.20
C       7.35      -2.91      13.58
C       7.45      -1.53      13.51
C       6.02       2.95      15.03
C       5.93       1.57      15.12
C       6.72       0.76      14.28
C       6.64      -0.72      14.33
