13

O       4.94       4.08       8.05
O       4.47       2.08       8.94
O       5.43       5.05       3.85
O       4.57       6.07       5.63
C       4.21       3.03       8.14
C       2.97       2.94       7.26
C       3.78       3.84       5.11
C       4.65       5.07       4.84
N       2.90       4.03       6.27
H       2.95       1.95       6.77
H       2.10       3.01       7.92
H       3.22       3.60       4.19
H       4.46       3.00       5.26
