16

C       3.54      13.94       9.95
O       7.59      15.77      11.70
O       1.55      12.00      10.11
C       4.52      14.92       9.95
C       3.65      12.83      10.81
C       5.62      14.81      10.81
H       4.46      15.78       9.28
H       4.82      11.86      12.33
O       2.81      10.74      11.52
O       6.58      16.78       9.92
H       6.59      13.64      12.34
C       6.68      15.87      10.81
C       4.75      12.72      11.67
C       2.59      11.78      10.81
H       2.67      14.00       9.29
C       5.73      13.71      11.67
