38

O       4.40       3.41      12.20
O       4.82       2.82      10.12
O       8.75      -2.74      13.45
O       9.33      -2.27      11.38
O      10.66       2.75      13.10
O      10.43       2.86      10.91
H       2.71       0.03      13.43
H       9.09      -0.48      14.75
O       3.75       0.67      11.71
O       9.74       0.04      12.82
H      10.19       0.96      14.65
C       7.59       4.30      11.63
H      10.83      -0.70      14.37
C       6.11      -3.62      11.79
H       2.11       1.50      12.58
O       3.41      -2.37      10.45
O       2.90      -2.15      12.59
C       7.51       2.80      11.80
C       6.14      -2.13      11.94
C       4.93       0.02      11.88
C       8.61       0.70      12.44
C       4.96      -1.36      11.85
C       8.66       2.05      12.14
C       7.32      -1.43      12.18
C       6.29       2.13      11.75
C       7.38      -0.02      12.23
C       6.18       0.73      11.96
C       2.99       0.97      12.92
C       9.97      -0.04      14.25
N       5.06       2.86      11.32
N       8.58      -2.21      12.34
N      10.02       2.63      12.06
N       3.65      -2.03      11.61
H       3.58       1.61      13.59
O       6.53       4.87      11.23
O       7.17      -4.16      11.36
O       8.69       4.86      11.93
O       5.02      -4.20      12.10
