16

C      27.94      11.31      30.29
O      24.25       9.06      25.46
O      28.96      11.89      29.81
O      27.65      11.20      31.53
O      23.08       8.16      27.18
H      25.78       9.98      30.95
C      26.96      10.70      29.32
C      24.89       9.41      29.08
C      27.07      10.76      27.91
C      25.87      10.02      29.86
C      26.09      10.15      27.13
C      25.00       9.46      27.67
H      26.18      10.19      26.04
Cl      23.61       8.63      29.93
Cl      28.33      11.57      27.06
C      24.03       8.84      26.70
