46

H       3.87      -1.01       2.90
H       2.72       0.04       3.78
H       3.11      -3.13       1.36
H       2.39      -5.42       2.05
H      -1.48      -2.87       5.15
H       1.77      -1.77       5.64
H      -2.72       1.05       2.93
H      -2.15      -5.14       5.87
H       0.91      -6.87       3.37
H       2.40      -0.61       7.73
H      -0.62       2.38       7.01
O       1.95      -0.89       2.08
O       3.07       1.15       0.85
H      -2.07       2.22       5.02
H      -3.52      -0.56       1.82
O       4.41       1.63       2.57
H      -3.23      -2.15       2.59
H      -0.97      -7.15       4.98
O      -4.21      -2.79       0.39
O      -1.52      -1.15       1.97
H       1.22       1.48       8.42
O      -2.31      -1.97      -0.51
C       1.58      -2.16       2.54
C       3.04      -0.29       2.78
C       3.52       0.91       2.00
C       0.52      -2.25       3.43
C       2.28      -3.28       2.05
C      -0.17      -1.02       3.90
C       0.11      -3.55       3.85
C       1.88      -4.54       2.44
C       0.22      -0.36       5.11
C      -1.21      -0.50       3.15
C      -0.96      -3.74       4.76
C       0.80      -4.71       3.34
C       1.26      -0.86       5.94
C      -0.48       0.83       5.52
C      -1.91       0.67       3.55
C      -1.34      -5.01       5.16
C       0.38      -6.00       3.76
C       1.60      -0.21       7.11
C      -0.09       1.48       6.72
C      -1.54       1.31       4.71
C      -2.89      -1.47       1.80
C      -0.66      -6.15       4.65
C       0.93       0.97       7.50
C      -3.11      -2.12       0.45
