36

C       7.15       9.05       9.63
C       8.32       8.69      10.31
C       9.50       8.43       9.61
C       9.53       8.52       8.22
H       6.17       8.46       0.87
H      10.39       9.27       0.74
H       6.25       9.26      10.21
H      10.40       8.16      10.18
N      10.72       9.43       3.41
N       5.97       8.52       3.56
H       6.11       8.24       4.52
H       5.22       8.02       3.10
H      10.61       9.82       4.34
H      11.44       9.90       2.86
N      10.70       8.31       7.50
H      10.57       8.08       6.52
H      11.40       7.73       7.96
N       6.00       9.47       7.53
H       6.15       9.88       6.61
H       5.28       9.95       8.07
O       9.40       8.35      12.40
O       7.20       8.87      12.39
O       7.10       8.85      -1.38
O       9.37       8.72      -1.42
C       8.30       8.63      11.81
C       8.24       8.80      -0.82
C       8.28       8.84       0.68
C       7.10       8.64       1.41
C       7.12       8.69       2.81
C       8.35       8.96       3.48
C       9.53       9.19       2.73
C       9.49       9.11       1.33
C       8.38       8.99       4.89
C       8.36       8.96       6.11
C       8.35       8.89       7.52
C       7.16       9.16       8.24
