26

O       8.12       9.27      30.12
O      10.41       9.27      30.12
H      10.31       7.20      24.91
H      10.63      11.15      24.91
O       9.25       8.13      18.07
O       9.25      10.41      18.07
H       7.99       7.36      23.27
H       8.32      11.36      23.27
H       6.98       9.45      24.91
C       9.27       9.27      29.54
C       8.56       8.21      23.65
C       8.74      10.43      23.65
O      12.78       8.98      24.15
O      12.21       9.03      22.01
C       9.84       8.11      24.55
C      10.02      10.32      24.55
C       9.27       9.27      28.11
C       9.24       9.27      20.08
C       8.01       9.37      24.54
C       9.28       9.27      25.47
C       9.28       9.27      22.71
C      10.55       9.17      23.64
C       9.29       9.27      26.89
C       9.27       9.27      21.30
C       9.25       9.27      18.64
N      11.95       9.05      23.22
