30

H      -0.05       4.14       6.11
C      -2.63      -0.85       1.41
H      -1.37      -5.03      -3.24
C      -1.76      -1.80       0.83
C      -0.46      -1.93       1.38
C      -0.05      -1.13       2.44
C      -0.92      -0.15       2.98
C      -2.23      -0.04       2.46
C      -2.18      -2.53      -0.30
C      -0.40       0.72       3.96
C       0.20       1.47       4.71
C      -2.56      -3.08      -1.32
I       0.89      -3.34       0.59
H      -2.91       0.70       2.88
H      -3.64      -0.75       1.00
H       0.96      -1.22       2.84
C       0.87       3.58       5.98
N       2.06       4.12       6.36
N       3.04       3.24       6.09
C       2.48       2.16       5.51
C       1.08       2.31       5.40
N      -4.25      -4.05      -4.36
N      -3.09      -4.79      -4.47
C      -4.21      -3.36      -3.21
C      -2.34      -4.55      -3.38
N       3.33       1.19       4.92
O       2.85       0.15       4.46
O       4.57       1.48       4.87
C      -3.00      -3.64      -2.53
H      -5.02      -2.71      -2.92
