27

N      -0.32      10.21      10.34
N      -1.49       9.60      10.69
O      -5.30      14.51       4.93
O      -4.23      13.29       3.33
H      -1.44       8.99      11.54
H      -5.07      13.74       7.15
H      -3.99      12.49       9.03
H      -1.31      10.62       6.23
H      -2.44      11.81       4.35
H       0.02      12.50       7.91
H       1.16      11.15       7.97
H       1.10      12.30       9.32
H      -4.45       9.62       9.06
C      -2.59      11.46       7.76
C      -4.48      13.59       4.53
H      -4.39       9.87      10.82
C      -3.82      12.85       5.64
H      -3.87       8.32      10.14
C      -2.14      11.29       6.43
C      -4.25      13.04       6.96
C      -1.92      10.79       8.87
C      -0.56      10.94       9.24
C      -3.66      12.34       8.01
C      -2.48       9.93       9.83
C      -2.76      11.96       5.38
C       0.49      11.77       8.58
C      -3.87       9.41       9.97
