30

H       7.32       4.30       6.66
C       6.39       4.21       6.09
C       0.27       8.37       5.52
H       6.53       4.69       5.11
C       2.28       7.02       5.77
H       6.21       3.14       5.94
H       0.79       9.36       1.59
C       4.37       5.69       6.20
N      -2.49      10.11       1.51
H      -0.97      10.31       0.13
O       2.78       6.22       7.91
H       4.61       5.87       5.16
C       3.19       6.28       6.70
C       1.20       7.73       6.33
C       1.47       7.63       3.56
H       1.57       7.57       2.48
C      -0.24       9.42       1.96
O       5.14       4.43       8.10
C       5.24       4.81       6.88
C      -2.85       9.70       2.73
H      -3.90       9.84       2.99
H       1.11       7.76       7.41
C       0.39       8.33       4.12
C       2.39       6.98       4.37
H       3.19       6.41       3.90
H      -2.30       8.77       4.59
C      -0.60       8.97       3.24
H      -0.55       8.93       5.99
C      -1.21       9.97       1.14
C      -1.95       9.13       3.62
