26

C       5.62       6.97      17.38
C       5.66       6.95      24.55
C       5.63       5.76      18.09
C       5.64       5.76      19.48
C       5.66       8.16      23.84
C       5.66       8.16      22.45
C       5.66       5.75      23.83
C       5.65       5.75      22.44
C       5.64       8.17      18.10
H       5.63       4.83      17.54
H       5.64       4.80      20.00
H       5.68       9.09      24.39
H       5.67       9.12      21.93
C       5.65       8.17      19.49
C       5.65       6.96      20.22
H       5.64       9.11      17.55
H       5.66       9.12      20.01
C       5.65       6.96      21.71
H       5.66       4.81      24.38
H       5.65       4.80      21.92
C       5.61       6.98      15.89
C       5.66       6.95      26.04
O       5.60       5.86      15.29
O       5.62       8.12      15.32
O       5.65       8.08      26.63
O       5.67       5.81      26.62
