16

C      15.54      12.89       6.16
C      21.14      10.19       2.01
C      16.74      11.09       4.81
C      19.94      11.98       3.37
C      16.65      12.36       5.36
H      15.97      10.34       4.94
C      18.75      12.12       4.10
C      17.95      10.95       4.09
H      20.71      12.74       3.23
C      20.04      10.71       2.83
O      14.53      12.12       6.33
O      15.69      14.08       6.62
O      21.06       8.96       1.67
O      22.09      11.00       1.72
S      18.01      13.38       5.01
S      18.69       9.68       3.19
