38

C       0.92      11.33       5.56
C       2.37       9.56       4.20
C       2.76      11.01       3.81
H       2.12       8.45       6.06
C      -1.23      12.71       6.14
C       0.85       9.39       3.93
H       3.64       9.37       5.97
H       2.24      12.89       4.80
H       3.77      11.21       4.20
H      -0.74      10.83       4.30
H       0.58       8.33       4.07
C       0.67      13.50       6.95
H       0.65       9.64       2.88
C       0.13      12.41       6.24
H       1.03      12.33       3.65
H      -2.04      12.14       5.68
C       4.24       7.77       3.75
H       2.80      11.11       2.72
C       3.13       8.49       1.98
N      -1.48      13.89       6.76
H       1.69      13.67       7.26
N      -0.30      14.37       7.25
H       4.65       7.57       4.74
N       4.78       7.17       2.67
N       4.07       7.61       1.57
H       0.47       9.70       7.42
H      -0.97       8.69       5.50
H       2.94       9.77       0.56
O       1.31      10.13       7.71
O      -0.66       9.51       5.91
H       3.47      11.08       7.55
O       2.33       9.11       1.10
O       2.91      11.53       6.89
C       3.18       8.60       3.39
C       1.92      10.58       6.50
C       2.57       9.40       5.72
C       1.75      11.99       4.41
C       0.02      10.28       4.87
