14

C       4.84       7.90      11.35
C       6.68       4.48       6.27
O       3.68       8.22      11.79
O       7.83       4.21       5.78
C       6.69       5.24       7.53
C       4.82       6.98      10.19
H       3.84       6.83       9.75
C       5.85       6.32       9.61
C       5.68       5.49       8.40
H       7.67       5.64       7.79
Br       7.63       6.42      10.28
Br       3.93       4.81       8.12
O       5.56       4.16       5.75
O       5.95       8.30      11.81
