16

H       4.21      -0.10       8.32
H       0.66      -1.75      10.08
C       4.02      -0.21      12.98
C       3.41      -0.41      11.62
C       2.15      -1.03      11.48
C       4.14      -0.07      10.48
H       1.58      -1.27      12.38
H       5.12       0.38      10.61
O       2.47      -0.70       6.71
O       0.63      -1.67       7.60
O       3.31      -0.67      13.99
O       5.15       0.30      13.10
C       1.77      -1.16       7.72
C       2.38      -0.95       9.07
C       3.63      -0.34       9.21
C       1.64      -1.30      10.22
