42

O       3.29      13.39       6.34
O       7.31      13.49       8.98
H       4.72      15.17       9.70
O       3.47      10.57       6.37
H       4.72      17.69       9.57
O       7.29      10.67       8.93
H       5.83      15.12       5.53
H       5.82      17.64       5.59
H       1.27      13.72       6.33
H       2.01      13.74       7.97
H       1.76      12.17       7.12
H       8.46      14.10       7.33
H       8.97      12.55       8.11
H       9.25      14.13       8.94
H       4.36      10.27       4.53
H       3.23      11.68       4.61
H       2.21       9.72       3.38
H       2.45       8.71       4.83
H       1.30      10.08       4.88
H       6.30      10.30      10.72
H       7.38      11.75      10.73
H       8.40       9.81      11.98
H       8.27       8.80      10.52
H       9.37      10.21      10.54
C       4.32      12.74       6.98
C       6.33      12.79       8.31
C       4.40      11.33       6.98
C       6.32      11.38       8.32
C       5.31      13.47       7.64
C       4.96      15.68       8.77
C       5.59      15.65       6.44
C       4.96      17.06       8.71
C       5.58      17.04       6.47
C       5.28      14.95       7.62
C       2.00      13.23       6.99
C       8.57      13.56       8.29
C       3.40      10.64       4.91
C       2.27       9.73       4.48
C       7.27      10.70      10.40
C       8.40       9.83      10.88
N       5.38      10.69       7.65
N       5.28      17.73       7.58
