64

H       0.05       8.44      13.71
H      -3.74      10.31      15.78
H      -2.66      14.91      14.50
H      -7.41      16.12      15.45
H      -6.68      13.75      15.53
H      -6.92      18.47      14.80
H      -2.20      17.26      13.83
H      -2.24      13.47      13.26
H      -0.12      12.22      13.01
H       1.16      10.63      14.58
H      -2.77       9.20      17.36
H      -4.34       5.54      20.60
H       0.49       4.30      20.33
H      -0.42       6.10      18.91
H       0.11       2.46      21.97
H      -4.67       3.77      22.37
H      -1.90       5.01      17.11
H      -0.78       5.38      14.91
C      -1.09       7.50      14.92
C      -1.69       8.61      15.58
C      -1.78       9.96      14.98
C      -2.93      10.72      15.17
C      -3.11      12.02      14.64
C      -4.38      12.68      14.99
C      -4.63      14.15      14.96
C      -3.71      15.14      14.65
C      -4.11      16.50      14.52
C      -5.48      16.86      14.79
C      -6.38      15.84      15.20
C      -5.98      14.54      15.26
C      -5.89      18.19      14.60
C      -5.04      19.18      14.10
C      -3.66      18.82      13.84
C      -3.24      17.51      14.07
C      -2.68      19.76      13.24
C      -2.10      12.54      13.81
C      -0.92      11.83      13.63
C      -0.74      10.59      14.26
C      -2.33       8.37      16.81
C      -2.38       7.10      17.39
C      -3.04       6.93      18.72
C      -2.47       5.89      19.63
C      -3.29       5.24      20.54
C      -2.80       4.20      21.36
C      -1.41       3.83      21.26
C      -0.57       4.55      20.38
C      -1.08       5.55      19.58
C      -0.93       2.76      22.04
C      -1.75       2.02      22.89
C      -3.15       2.42      23.01
C      -3.62       3.48      22.25
C      -4.09       1.74      23.94
C      -1.84       6.01      16.69
C      -1.22       6.21      15.47
O      -1.49      19.41      12.99
O      -3.08      20.96      12.98
O      -5.55      20.40      13.86
O      -5.29       2.15      24.08
O      -3.66       0.71      24.59
O      -1.22       0.99      23.56
O      -0.44       7.58      13.74
O      -5.34      11.96      15.36
O       0.49       9.98      14.19
O      -4.00       7.62      19.06
