28

O       8.46      -2.36      15.17
C      12.92     -10.04      16.23
C      10.58      -4.14      16.84
C      12.43      -8.92      16.35
H      11.06      -2.17      18.96
C      11.03      -5.28      16.73
C      11.93      -7.68      16.48
C      11.50      -6.53      16.60
H      13.52     -10.70      18.93
H      14.71      -9.54      18.24
H       8.55      -4.45      15.05
H       9.85      -3.57      14.19
H       8.17      -3.54      13.55
H      15.14     -10.54      19.68
C      13.30     -12.20      14.98
C      10.35      -2.00      18.15
C      13.50     -11.30      16.05
C      10.07      -2.85      17.05
C      14.58     -10.52      18.74
C       8.79      -3.56      14.45
H      12.59     -12.12      14.16
C      14.51     -11.95      16.82
N      14.87     -13.11      16.23
N      14.12     -13.25      15.08
N       9.64      -0.89      18.08
N       8.86      -0.92      16.93
C       9.12      -2.10      16.31
O      15.15     -11.57      17.94
