16

C      12.71      -4.46       7.43
C      14.90      -4.71       5.71
C      13.69      -3.48       7.42
C      13.91      -5.69       5.72
H      15.75      -4.79       5.04
C      14.79      -3.60       6.56
C      12.82      -5.57       6.59
C      11.77      -6.64       6.61
H      13.98      -6.56       5.07
O      11.96      -7.65       5.85
O      15.70      -1.57       7.36
H      11.85      -4.38       8.09
O      16.82      -2.71       5.72
C      15.85      -2.55       6.54
H      13.63      -2.61       8.07
O      10.77      -6.46       7.39
