36

C      13.79      10.60       3.28
C      14.95      10.98       2.60
C      12.48       8.94       4.51
C      11.46       8.62       5.10
C      10.28       8.25       5.78
C      10.16       6.97       6.34
C       9.00       6.58       7.01
C       7.89       7.49       7.15
C       8.04       8.81       6.57
C       9.22       9.16       5.89
H      14.63       7.40       4.14
H      12.96      11.30       3.38
H      10.99       6.26       6.24
H       9.31      10.15       5.46
N      16.91       7.82       3.00
N      14.97      12.24       2.05
N       8.94       5.30       7.50
N       7.07       9.76       6.68
O       5.68       7.94       7.91
O       6.60       5.94       8.41
H      17.69       8.01       2.39
H      16.68       6.87       3.25
H      15.87      12.57       1.70
H      14.26      12.89       2.34
H       8.18       5.06       8.12
H       9.81       4.77       7.54
H       6.16       9.47       7.02
H       7.14      10.58       6.09
O      17.39      11.66       1.31
O      18.22       9.57       1.60
C       6.67       7.11       7.85
C      17.28      10.45       1.76
C      16.05      10.06       2.46
C      15.91       8.75       3.04
C      14.72       8.40       3.71
C      13.67       9.31       3.83
