20

N       9.86       6.38      19.25
N       4.92       3.15      20.90
C      10.32       3.33      18.19
O      10.03       2.24      17.59
O      11.44       3.91      18.23
C       4.68       6.06      22.38
O       4.67       7.34      22.48
O       3.92       5.25      22.99
C       9.03       5.21      19.49
C       5.88       4.24      20.94
C       9.20       3.93      18.95
C       5.73       5.51      21.50
C       7.12       4.11      20.26
C       7.85       5.31      20.26
O       9.83       7.23      20.16
O      10.47       6.49      18.19
O       5.43       2.02      20.72
O       3.72       3.39      20.97
S       7.89       2.87      19.37
S       7.07       6.55      21.15
