26

C       3.59       2.94      22.52
C       3.78       2.48      23.91
C       2.84       2.83      24.90
C       4.90       1.72      24.30
O       3.51       3.73      17.50
O       2.46       5.51      18.36
C       3.05       2.49      26.23
C       5.10       1.36      25.63
C       4.19       1.77      26.62
C       4.42       1.51      28.07
O       5.40       0.75      28.43
O       3.67       2.06      28.93
H       2.33       5.60      20.76
H       4.20       2.05      19.27
H       2.66       4.80      23.10
H       4.49       1.20      21.60
H       1.93       3.36      24.62
H       5.64       1.45      23.56
H       2.34       2.76      27.01
H       5.96       0.75      25.89
C       3.07       4.39      18.49
C       3.26       3.87      19.88
C       2.81       4.64      20.97
C       3.87       2.64      20.12
C       2.98       4.18      22.27
C       4.04       2.17      21.42
