18

C      -0.23       6.26      22.86
O       0.55       3.54      20.72
C      -0.50       8.35      24.17
N      -0.00       4.11      21.67
H      -0.00       9.45      21.67
O      -0.72       9.62      24.16
C       0.23       6.26      20.48
H      -0.40       5.71      23.78
C       0.50       8.35      19.16
C      -0.00       5.59      21.67
O       0.72       9.62      19.17
C      -0.24       7.66      22.86
O      -0.51       7.65      25.22
H       0.40       5.71      19.55
O       0.51       7.65      18.11
C       0.24       7.66      20.47
O      -0.56       3.54      22.62
C      -0.00       8.36      21.67
