28

C       8.82      12.03       0.06
C       9.39      17.83      -0.05
H       9.15      11.46      -2.10
H       9.43      18.51      -2.21
H       8.71      11.32       2.20
H       9.93      18.34       2.09
C       8.05      14.31       0.88
C       8.32      15.77       0.95
C       8.78      13.49       0.08
C       8.86      16.48      -0.09
H       9.52      13.96      -0.58
H       8.94      15.98      -1.06
C       6.99      13.76       1.80
C       8.01      16.46       2.26
N       9.27       9.92      -0.65
N      10.19      19.85      -0.76
N       9.14       9.88       0.71
N      10.34      19.79       0.61
H       6.08      14.37       1.76
H       6.72      12.73       1.51
H       7.31      13.73       2.85
H       7.09      16.06       2.70
H       8.81      16.30       3.00
H       7.88      17.54       2.12
C       9.09      11.19      -1.05
C       9.64      18.68      -1.16
C       8.85      11.12       1.14
C       9.86      18.60       1.03
