32

H       5.35      19.77      14.51
H       1.31      21.61      10.54
H       5.52      18.00      16.27
H       1.16      23.37       8.76
H       1.51      16.71      15.33
H       5.22      24.52       9.55
H       1.03      19.25      12.57
H       6.46      23.65      11.23
C       3.57      16.25      17.02
C       3.14      25.05       7.94
C       4.52      19.09      14.70
C       2.16      22.26      10.32
C       4.60      18.12      15.68
C       2.08      23.23       9.33
C       3.51      17.27      15.93
C       3.19      24.04       9.04
C       2.35      17.38      15.16
C       4.36      23.89       9.78
C       2.27      18.33      14.14
C       4.46      22.93      10.80
C       3.36      19.22      13.92
C       3.34      22.08      11.07
C       3.31      20.21      12.91
C       3.38      21.09      12.07
C       1.06      18.39      13.29
C       5.74      22.84      11.52
O       4.72      15.91      17.47
O       1.99      25.39       7.50
O       2.45      15.82      17.45
O       4.27      25.47       7.52
O       0.15      17.58      13.34
O       6.06      21.98      12.34
