14

C       7.09       9.30       8.30
H       8.13       9.17       8.62
H       5.76      10.72       7.42
H       6.69       7.20       7.88
C       4.19       6.81       8.57
H       4.47       8.90       9.18
O       3.15       6.69       9.32
C       6.74      10.53       7.86
C       6.24       8.13       8.26
O       4.59       5.92       7.75
C       4.96       8.06       8.69
O       8.74      11.59       8.57
O       7.41      12.62       7.03
C       7.70      11.65       7.84
