30

H       9.88      24.13       0.93
H      14.55      24.13       1.54
C       8.46      24.13       3.20
C       9.96      24.13       3.07
C      10.79      24.13       4.20
C      12.17      24.13       4.05
C      12.77      24.13       2.77
H      19.18      24.13       1.23
H      16.71      24.13       1.28
C      11.92      24.13       1.65
H      16.82      24.13       5.60
C      10.53      24.13       1.80
H      19.31      24.13       5.52
C      14.21      24.13       2.58
C      20.88      24.13       3.34
H      14.77      24.13       4.61
C      19.40      24.13       3.37
C      18.65      24.13       2.18
C      17.26      24.13       2.22
C      16.58      24.13       3.45
C      17.34      24.13       4.64
O      21.45      24.13       2.19
C      18.73      24.13       4.60
O      21.49      24.13       4.47
C      15.13      24.13       3.57
O       7.90      25.27       3.25
H      10.35      24.13       5.20
H      12.79      24.13       4.95
O       7.90      22.99       3.25
H      12.36      24.13       0.65
