32

H       2.02       0.29       7.73
H       3.31       5.36       4.57
H       5.93       4.26       5.74
H       5.18       3.76       4.23
H       1.72       0.75       5.28
C       2.17       2.97       1.39
C       4.97       4.12       5.24
C       4.24       5.47       5.14
O       2.59       4.03       0.76
O       5.54       1.94      12.05
O       4.23       0.13      12.52
H       3.99       5.87       6.14
H       6.59       1.96       8.68
H       7.12       2.89       7.25
H       7.34       3.55       8.90
H       5.38       4.66       7.78
H       4.89       3.74       9.20
H       4.86       6.21       4.63
O       1.30       2.16       0.98
C       4.62       1.12      11.78
C       5.28       3.64       8.18
C       6.66       2.97       8.25
C       3.98       1.31      10.51
C       4.30       2.85       7.35
C       4.16       3.08       5.97
C       2.44       1.31       5.87
C       2.60       1.07       7.22
C       3.53       1.82       7.97
C       3.21       2.31       5.24
C       2.99       2.55       3.86
C       3.73       1.54       9.34
C       2.72       2.73       2.69
