18

C      12.71       7.56      12.12
O      15.68       5.57       9.72
C      13.28       8.83      12.26
O      12.78      11.01      13.31
O      13.21       5.39      11.07
H      13.63      11.23      12.90
H      12.35       5.17      11.47
O      16.75       7.59       9.88
O      10.30      10.84      14.63
O       9.23       8.81      14.49
C      15.78       6.78      10.11
S      11.19       7.43      12.93
S      14.79       8.97      11.45
C      10.20       9.62      14.25
C      12.47       9.72      13.02
C      13.52       6.68      11.35
C      11.30       9.09      13.46
C      14.68       7.31      10.92
