16

O      -1.31      27.18      11.07
O      -2.63      28.14      12.60
C      -0.80      26.80      13.38
C       0.80      25.63      15.51
Br      -2.58      28.10      15.31
C      -1.11      27.03      14.75
C      -0.32      26.46      15.79
C       0.33      25.98      13.10
C       1.11      25.41      14.13
Br       0.87      25.58      11.32
Br      -0.87      26.86      17.57
O       2.63      24.30      16.29
O       1.31      25.26      17.82
Br       2.58      24.33      13.58
C      -1.64      27.42      12.26
C       1.64      25.02      16.62
