38

H      12.82       6.39      14.00
H       8.73       4.18      13.85
H      12.20       4.11      12.62
H      10.97       3.45      15.25
C       9.09       5.20      13.70
C      11.76       6.64      14.15
C      12.77       6.11      11.22
C       8.95       4.07      16.62
Cl      10.63       2.41      12.82
Cl      13.26       3.84      15.04
H       9.41       6.90      15.01
H      10.16       7.30      12.83
H       8.27       5.79      13.28
H      11.71       7.66      14.56
H      12.35       5.20      10.77
H      13.51       5.85      11.99
O       8.15       5.81       8.48
O      11.45       7.65      19.47
H      13.29       6.67      10.43
O       9.37       3.93       8.12
O      12.48       5.65      19.81
H       9.93       3.93      17.10
H       8.79       3.31      15.84
O      11.75       6.99      11.70
H       8.18       3.94      17.38
O       8.79       5.41      16.14
C      10.99       6.57      12.82
C       9.57       5.81      15.03
C      11.64       6.16      17.71
C       9.50       5.01      10.17
C      10.28       5.16      12.70
C      11.14       5.63      15.15
C      11.53       4.21      14.69
C      11.26       4.05      13.18
C      11.50       5.90      16.53
C       9.84       5.00      11.34
C       8.99       4.92       8.84
C      11.85       6.52      19.08
