26

C      13.23      14.64       5.06
C      13.42      14.98       6.42
C      14.20      16.11       6.71
C      14.79      16.86       5.70
C      14.59      16.51       4.36
C      13.80      15.40       4.05
C      12.81      14.17       7.49
C      11.65      13.40       7.27
C      11.09      12.64       8.29
C      11.65      12.65       9.57
C      12.79      13.42       9.81
C      13.37      14.15       8.79
O      11.38      12.10      11.87
O      10.08      11.07      10.32
H      14.34      16.42       7.75
H      15.41      17.73       5.93
H      13.64      15.14       3.00
H      12.65      13.75       4.80
H      11.17      13.42       6.29
H      10.19      12.05       8.11
H      13.22      13.44      10.82
H      14.29      14.71       8.98
O      14.96      17.01       2.06
O      16.10      18.18       3.64
C      15.26      17.30       3.28
C      11.00      11.88      10.67
