17

O      24.55      15.37      13.11
C      25.83      15.76      12.89
C      28.04      18.18      11.35
C      26.94      15.07      13.40
C      26.95      18.86      10.85
C      27.64      17.04      12.09
O      28.13      13.43      14.54
H      23.94      16.01      12.69
O      25.84      13.37      14.58
C      26.24      16.89      12.14
C      26.97      20.09      10.06
C      26.96      13.87      14.24
H      29.07      18.51      11.18
S      28.46      15.80      12.96
S      25.42      18.13      11.26
O      25.83      20.52       9.64
O      28.11      20.63       9.85
