18

O       2.14       3.22       0.93
C       0.18       1.96      -0.69
O      -2.99       1.21      -2.32
H       2.78      -0.24      -0.90
C      -0.42       0.04      -2.04
O       0.36      -2.38      -3.24
H      -0.08       2.92      -0.24
O       3.64       1.67       0.44
H      -1.15      -0.50      -2.65
C       0.85      -0.50      -1.84
O      -2.36       3.03      -1.23
C       1.45       1.42      -0.49
C      -0.75       1.27      -1.47
C       1.21      -1.80      -2.45
C       2.45       2.15       0.33
O       2.32      -2.35      -2.21
C      -2.10       1.85      -1.70
C       1.79       0.19      -1.06
