20

H       8.28       3.36       8.06
H       8.47       4.11       9.65
H      10.82       3.95       9.34
H      10.63       3.47       7.66
H       8.32       4.78       6.08
H      10.68       5.05       5.95
H       8.33       7.51       8.45
H       8.26       6.49       9.90
H      10.64       6.26       9.93
H      10.69       7.52       8.68
H       8.17       6.53       6.26
C       8.76       4.19       8.59
C      10.30       4.19       8.41
C       8.66       5.64       6.67
C       8.71       6.59       8.90
C      10.20       5.76       6.62
C      10.25       6.55       8.95
Br      10.70       7.51       5.88
N       8.20       5.46       8.07
N      10.77       5.54       7.98
