12

C       5.04       8.28       7.74
C      -1.24       8.91       6.87
C       3.83       8.36       7.57
C      -0.03       8.76       7.00
C       2.50       8.48       7.38
C       1.29       8.61       7.18
O       7.04       7.75       6.76
O      -3.20       9.46       7.92
O       7.04       8.78       8.80
O      -3.28       8.64       5.79
C       6.49       8.27       7.79
C      -2.68       9.01       6.85
