30

C       5.19       2.22      20.37
C       2.94       1.12      20.44
C       3.20       0.89      21.94
C       4.02       1.68      25.18
C       3.71       2.38      19.96
C       3.35       3.35      16.02
C       5.33       2.24      21.91
C       3.93       2.12      22.56
C       3.11       3.38      22.22
C       3.11       3.61      20.70
C       4.02       1.92      23.99
C       3.56       2.58      18.54
C       3.43       2.82      17.35
H       5.98       1.43      22.26
H       5.57       1.28      19.95
H       1.87       1.27      20.23
H       3.26       0.26      19.84
H       3.82      -0.00      22.11
H       2.26       0.73      22.49
H       3.70       4.50      20.42
H       2.09       3.78      20.32
H       3.54       4.25      22.76
H       5.78       3.02      19.90
H       5.78       3.18      22.25
H       2.08       3.25      22.61
C       3.93       1.11      26.50
O       2.78       0.74      26.87
O       5.03       0.96      27.16
O       4.43       3.52      15.39
O       2.17       3.67      15.60
