34

H       3.48       9.79      10.50
H       4.98      12.14       9.66
H       3.49      12.14      10.58
H       7.21       9.55      13.86
H       4.41       8.43      14.35
H       7.13      12.32       9.75
H       2.45      12.21      12.52
H       7.07       9.80      10.80
H       3.33       9.95      12.81
H       7.18      11.99      12.81
H       5.18      12.00      13.98
H       5.03       9.81       9.66
C       5.14       8.11      11.84
C       5.29      13.78      11.79
C       6.66      10.12      11.77
C       4.39      10.22      13.03
C       6.70      11.69      11.86
C       4.56      11.76      13.11
C       4.50      10.19      10.55
C       5.19       9.64      11.81
C       5.27      12.25      11.82
C       4.51      11.74      10.57
C       7.60       9.56      12.82
C       4.68       9.51      14.34
C       7.61      12.17      10.75
C       3.19      12.38      13.34
O       6.22       7.52      12.18
O       8.76       9.25      12.58
O       5.16      10.04      15.33
O       8.83      12.28      10.86
O       2.85      12.92      14.38
O       4.05       7.55      11.53
O       6.39      14.35      11.49
O       4.19      14.36      12.04
