24

H      11.79       6.62       8.75
H       9.54       9.51       5.98
H      14.28       6.85       8.52
H       7.06       9.37       6.29
C      12.21       7.13       7.89
H      11.43       8.74       4.98
C      13.59       7.27       7.78
C       9.10       8.64       6.49
C      13.37       8.46       5.84
C       7.90       6.63       7.83
C      12.00       8.34       5.82
C       9.27       6.56       7.66
C      11.38       7.68       6.90
C       9.91       7.62       7.00
H       9.81       5.69       8.05
C       7.73       8.60       6.67
N      14.17       7.96       6.78
N       7.13       7.61       7.36
N      14.00       9.27       4.76
N       7.26       5.58       8.66
O      14.69      10.22       5.11
O      13.71       8.93       3.60
O       6.50       5.96       9.55
O       7.59       4.41       8.41
