41

H       3.62       7.61       5.29
H       1.77       8.02       7.46
H       2.09       8.50       5.20
H       3.54      11.86       5.84
C       2.83       8.21       7.24
C       4.82       9.60       7.85
H       3.39       7.34       7.61
C       5.13       9.72       6.35
C       4.45       9.99       2.92
C       3.29       9.46       8.04
H       5.31       8.71       8.27
C       3.05       8.43       5.74
H       5.77       8.89       6.01
C       3.83       9.74       5.50
H       5.69      10.65       6.18
H       1.51      10.59       7.55
C       1.33      12.29       4.88
C       0.74      12.99       6.11
H       2.88      11.59       8.07
C       0.14      14.34       5.74
H       5.13      10.68       9.46
O       1.36       9.58      12.46
O       4.53      11.44       1.13
O       2.38       7.55      12.28
H       0.56      12.17       4.10
H       2.15      12.90       4.45
H      -0.03      12.34       6.55
H       1.51      13.12       6.88
H       0.92      15.03       5.36
H      -0.33      14.82       6.61
H      -0.62      14.24       4.96
C       2.12       8.72      11.88
O       5.58       9.42       0.97
C       2.96      10.93       5.98
O       5.32      10.78       8.51
C       2.60      10.72       7.47
O       1.80      10.97       5.15
C       4.16       9.88       4.10
C       2.97       9.29       9.44
C       2.67       9.11      10.61
C       4.87      10.31       1.58
