46

H      14.84      20.47      20.91
H      16.56      22.41      17.44
C      10.54      29.74      22.22
C      11.51      29.27      21.38
C      11.24      28.43      20.26
C      12.18      27.79      19.52
H       8.92      30.34      24.64
H      12.71      31.69      23.04
H       5.27      24.71      15.41
H       7.41      27.94      13.47
C       7.95      25.96      15.71
C       8.89      26.86      16.11
C       9.99      26.51      16.97
C      10.77      27.42      17.60
N      16.85      20.54      18.39
N      16.31      19.93      19.49
H      14.11      23.18      20.57
H      14.36      23.90      17.58
H      13.04      25.33      20.02
H      12.66      25.71      16.97
N      11.59      32.14      24.78
N      10.39      31.72      25.29
H      12.55      29.53      21.58
H      10.19      28.27      19.99
H       9.51      29.43      22.03
H      13.24      27.79      19.80
N       5.49      27.08      13.23
N      11.90      27.07      18.36
N       4.81      26.05      13.84
H       8.79      27.90      15.80
H      10.17      25.45      17.16
H       8.01      24.94      16.10
H      10.57      28.49      17.57
C      15.40      20.76      20.03
C      15.32      21.95      19.27
C      16.26      21.74      18.24
C       9.87      30.82      24.43
C      10.75      30.62      23.35
C      11.82      31.49      23.63
C       5.61      25.53      14.79
C       6.83      26.23      14.84
C       6.70      27.20      13.82
C      14.47      23.08      19.54
C      14.06      24.01      18.63
C      13.23      25.13      18.96
C      12.62      25.93      18.04
