28

C       3.07      13.48       4.42
C       4.35      13.97       4.86
C       4.47      14.99       5.83
C       6.89      14.90       5.69
C       6.84      13.91       4.74
C       5.56      13.42       4.29
C       4.21      11.95       2.90
C       5.71      15.44       6.25
H       6.33      11.97       2.85
H       2.06      12.09       3.12
H       3.59      15.43       6.29
H       7.85      15.29       6.04
H       8.75      14.18       3.79
H       8.03      12.60       3.44
H       8.73      12.93       5.03
H       1.22      14.54       4.14
H       1.88      14.73       5.77
H       1.13      13.20       5.29
C       1.77      14.02       4.94
C       8.15      13.37       4.21
O       4.65      16.87       7.79
O       6.91      16.98       7.64
C       5.76      16.50       7.30
O       5.27      10.52       1.36
C       4.16      10.88       1.86
O       3.01      10.40       1.51
C       5.44      12.41       3.31
C       3.03      12.48       3.46
