40

Br       1.58      10.63      11.35
H      -5.63      16.33       9.32
H      -5.79      12.82      11.84
N      -7.18      15.02       9.95
H      -3.49      16.79      10.81
H       1.13      18.12      10.64
H       3.28      12.57      10.65
H      -1.23      11.32      11.30
N      -7.22      13.89      10.72
N       6.64      14.42       8.62
H       5.34      16.07       8.43
N       6.68      13.31       9.41
N      -3.50      12.21      10.69
H       5.48      12.55      10.97
H      -2.93      11.47      10.30
H      -4.43      12.24      10.28
C       4.86      14.50       9.99
C      -5.90      15.45       9.90
C      -5.97      13.65      11.17
C      -5.07      14.60      10.66
C      -2.87      13.44      10.83
C      -3.61      14.65      10.81
C      -2.92      15.86      10.83
C      -1.52      15.94      10.85
C      -0.77      14.72      10.92
C      -1.46      13.47      10.98
C      -0.76      17.15      10.78
C       0.61      17.17      10.72
C       1.37      15.96      10.72
C       0.65      14.72      10.88
C       1.39      13.50      10.93
C       0.65      12.28      11.12
C      -0.71      12.27      11.13
C       2.77      15.91      10.53
C       3.48      14.70      10.45
C       5.56      15.15       8.96
C       2.76      13.52      10.71
C       5.63      13.35      10.24
Br      -1.68      18.82      10.72
Br       3.73      17.56      10.36
