10

O       2.92       5.25       4.12
O       5.14       4.87       4.12
O       3.22       5.34      -3.75
O       5.18       6.50      -3.57
C       4.08       5.32       2.11
C       4.10       5.46       0.89
C       4.12       5.60      -0.45
C       4.14       5.72      -1.67
C       4.05       5.14       3.53
C       4.18       5.87      -3.10
