22

H       4.79       4.24      16.45
H       6.41       5.79      10.87
H       5.01       3.09      15.12
H       7.55       5.51      12.20
H       1.78       6.98      15.46
H       3.81       8.92      11.86
H       3.36       3.57      15.62
H       7.15       7.18      11.70
C       4.45       5.07      14.51
C       5.60       6.17      12.81
H       2.51       5.65      16.39
H       5.11       8.13      10.93
C       4.39       3.92      15.47
C       6.75       6.17      11.85
H       1.53       5.31      14.95
H       5.50       9.10      12.37
N       3.59       7.12      13.66
N       5.49       5.13      13.66
C       2.26       6.00      15.38
C       4.77       8.39      11.94
C       3.46       6.07      14.50
C       4.64       7.20      12.82
