16

O       7.52       7.63      17.02
C       7.45       7.80      18.28
S       7.53       5.03      18.31
S       7.35       4.31      22.43
O       7.38       8.91      18.91
F       7.31       7.49      21.33
O       7.36       1.69      23.68
C       7.44       1.54      22.41
O       7.52       0.44      21.77
C       7.38       6.46      20.48
C       7.50       2.87      20.23
C       7.44       6.59      19.10
C       7.44       2.77      21.61
C       7.48       4.22      19.83
C       7.40       5.12      20.91
H       7.56       2.00      19.59
