22

O       3.32       4.80      11.81
O       2.34       6.34      13.06
H       1.38       4.62      15.44
H       3.52       5.48      17.13
H       4.47       2.78      17.28
H       6.08       3.26      14.99
H       3.93       2.41      13.32
C       2.00       1.71      15.58
C       2.43       4.32      15.37
C       3.33       4.53      14.11
C       4.51       5.03      15.05
C       3.61       4.77      16.30
C       4.14       3.30      16.38
C       5.03       3.55      15.11
C       3.86       3.08      14.18
C       2.95       2.84      15.46
C       5.21       6.32      14.81
N       2.96       5.27      12.90
O       2.26       0.77      16.42
O       0.99       1.77      14.82
O       6.18       6.36      13.97
O       4.76       7.30      15.47
