18

C       2.82       7.79       8.10
C       2.09       7.08       7.23
C      -0.13       8.24       7.15
C       0.63       7.11       7.20
H       2.59       6.35       6.59
H       2.37       8.47       8.82
H      -1.13       5.76       7.00
H      -0.37      10.42       6.93
O       0.61       4.72       7.21
C      -1.61       8.19       7.37
O       1.46       9.83       6.26
C       4.30       7.73       8.11
O      -2.03       7.53       8.38
O       4.87       8.57       8.89
O      -2.32       8.87       6.55
O       4.87       6.89       7.35
C      -0.03       5.76       7.15
C       0.37       9.61       6.77
