28

C       0.81       3.92       3.74
C      -3.81       1.18       9.44
H       1.82       4.32       3.62
C      -0.06       3.78       2.66
C      -3.12       2.35       4.40
H       0.25       4.07       1.65
C      -1.33       3.27       2.90
N       0.45       3.58       4.98
H      -2.04       3.15       2.08
C      -1.74       2.90       4.19
N      -0.07       3.13       7.56
H      -1.50       2.94      11.18
C      -0.80       3.09       5.23
N      -0.56       2.86       8.78
H      -2.97       2.15      13.04
C      -1.04       2.81       6.65
N      -2.14       2.31       7.25
H      -5.44       0.12      10.40
C      -1.80       2.36       8.56
N      -4.26       1.09      11.81
H      -4.09       0.88       8.43
C      -2.67       1.96       9.65
H      -3.31       2.13       5.46
C      -2.37       2.33      10.98
H      -3.87       3.07       4.05
C      -3.18       1.89      12.00
H      -3.25       1.43       3.81
C      -4.56       0.76      10.53
