38

N      14.74      -5.14      10.46
H      12.71      -5.38      10.99
N      15.84      -4.64      11.07
N       9.70     -11.51      23.84
N      10.91     -11.20      24.41
H       9.48      -7.47      22.35
H      11.90      -5.82      12.93
H      10.86      -6.55      17.35
H      13.43      -3.72      17.12
H      16.24      -3.80      12.97
H       8.65     -10.79      22.14
C      13.70      -5.04      11.30
C      10.65      -9.87      22.60
C      13.36      -4.48      13.78
C      13.71      -3.85      15.00
C      13.09      -4.19      16.20
C      12.06      -5.15      16.28
C      11.59      -5.64      15.03
C      12.23      -5.33      13.85
C      12.28      -8.02      19.73
C      11.94      -9.05      20.61
C      10.26      -7.62      21.60
C      10.58      -6.61      20.70
C      11.60      -6.77      19.76
C      11.60      -5.76      17.51
C      12.00      -5.71      18.80
C      10.94      -8.85      21.58
C      15.49      -4.22      12.31
C      14.12      -4.48      12.53
C       9.54     -10.71      22.76
C      11.47     -10.23      23.68
I      15.18      -2.34      15.14
I       9.93      -6.94      14.88
I       9.49      -4.82      20.79
Br      13.13      -9.53      24.21
Br      13.68      -8.27      18.48
Br      12.79     -10.74      20.50
Br      13.27      -4.49      19.55
