28

H       0.61      14.18      15.22
H       1.20      13.21      13.12
H       0.58       8.66      14.96
H      -0.52      10.34      20.69
H       0.25       8.34      19.47
C      -0.17      12.81      20.08
C       1.08       8.58      12.40
C       1.14      12.21      13.53
C       1.04       9.81      13.25
C      -0.21      10.43      19.65
C       0.21       9.29      18.96
C       0.68       9.41      17.66
C       0.58      10.63      16.93
C       0.22      11.81      17.70
C       0.79      10.76      15.50
C       0.90      12.05      14.91
C       0.61      13.20      15.70
C       0.21      13.08      17.00
C       0.79       9.66      14.60
C       1.24      11.10      12.71
C      -0.10      11.69      19.08
I       1.51      11.37      10.64
I       1.81       7.70      17.05
Br      -0.50      14.66      17.78
O       0.95      13.33      20.40
O      -1.30      13.05      20.62
O      -0.03       7.99      12.21
O       2.22       8.21      11.97
