28

H       3.39       4.16       4.78
H       3.22       4.34       2.29
H       7.33       5.90       4.63
H       2.86       4.66      -4.65
H       6.74       6.52      -4.63
H       6.79       6.37      -2.12
C       4.73       5.76      -6.26
C       5.48       4.85       6.32
C       5.37       5.00       4.85
C       4.21       4.58       4.19
C       4.11       4.68       2.81
C       5.16       5.24       2.05
C       6.31       5.70       2.73
C       6.43       5.57       4.11
C       5.05       5.31       0.65
C       4.93       5.34      -0.57
C       4.87       5.42      -1.97
C       3.76       4.92      -2.71
C       3.72       5.03      -4.09
C       4.79       5.62      -4.78
C       5.91       6.08      -4.07
C       5.94       6.00      -2.69
Cl       7.60       6.42       1.84
Cl       2.46       4.16      -1.87
O       3.61       5.59      -6.82
O       4.43       4.47       6.93
O       6.61       5.08       6.88
O       5.83       6.07      -6.85
