19

H       5.27       8.44       1.11
H       8.49      10.78       2.74
H       7.25      12.52       4.19
H       5.74      11.82       3.59
H       7.48      12.31       1.29
H       7.43      13.78       2.24
C       6.21       8.66       0.55
C       7.50      10.64       3.23
C       6.79      12.00       3.34
C       6.89      12.84       2.06
C       5.58      13.18       1.39
C       7.79      10.00       4.58
N       7.14       9.53       1.29
N       6.66       9.75       2.43
O       6.49       8.26      -0.55
O       4.55      12.50       1.71
O       5.62      14.12       0.53
O       8.15      10.80       5.51
O       7.71       8.74       4.65
