24

O       3.25       3.23       6.45
O      -0.05      -3.67       6.42
O       2.19      -3.79       6.12
H       3.26      -1.71       6.17
H      -1.82      -0.36       6.71
H      -1.51      -2.11       6.94
H      -1.32      -0.60       4.27
H      -1.10      -2.35       4.49
O       0.10      -0.85       6.50
H       3.74       0.68       6.31
H      -3.49      -2.58       5.27
H      -3.43      -1.82       3.66
H      -3.72      -0.83       5.10
H       0.73       1.17       5.92
C       2.13       2.82       6.01
C       2.41      -1.03       6.23
C       1.19      -1.64       6.32
C       2.69       0.39       6.22
C       1.79       1.39       6.06
C       1.11      -3.14       6.29
C      -1.28      -1.24       6.32
C      -1.64      -1.47       4.87
C      -3.15      -1.68       4.72
O       1.20       3.57       5.51
