56

C       0.08      14.47      27.17
C      -0.07      10.57      31.49
H      -1.92      15.52      24.59
H       1.93       9.53      34.07
C       1.18      15.32      26.93
C      -1.17       9.73      31.74
H      -1.88      13.90      26.48
H       1.91      11.14      32.18
C       1.17      16.20      25.84
C      -1.17       8.86      32.82
H       2.04      15.30      27.59
H      -2.03       9.76      31.07
C       0.06      16.27      24.99
C      -0.05       8.79      33.67
H       2.03      16.84      25.64
H      -2.02       8.22      33.02
C       1.20      12.74      28.65
C      -1.19      12.31      30.02
H       2.03      11.24      29.90
H      -2.03      13.80      28.75
C       1.13      11.79      29.66
C      -1.12      13.26      29.00
C      -0.06      11.55      30.38
C       0.06      13.50      28.29
H       3.89       9.11      25.83
H       2.50       9.94      25.10
H       3.16      12.79      26.10
H       1.54      12.08      26.28
H       4.12      10.96      27.54
H       2.52      10.21      27.63
C       2.53      12.18      26.76
C       3.17      10.82      26.99
C       3.43      10.09      25.66
C      -2.86      13.17      31.52
H      -3.95      13.14      31.47
H      -2.53      14.14      31.11
C      -2.37      12.98      32.95
H      -2.62      11.95      33.27
H      -1.27      13.05      32.97
C      -2.99      14.00      33.90
H      -2.75      15.03      33.61
H      -2.64      13.85      34.93
H      -4.09      13.90      33.92
H       4.11      10.67      25.02
O       1.09       7.54      35.32
O      -1.09      17.51      23.35
O       1.18      17.58      23.39
O      -1.18       7.47      35.28
O       2.40      12.93      27.99
O      -2.40      12.10      30.66
C       0.05      17.19      23.83
C      -0.05       7.86      34.84
C      -1.05      15.45      25.25
C       1.06       9.59      33.41
C      -1.03      14.56      26.32
C       1.05      10.48      32.35
