22

H       1.70      10.15      18.33
H      -3.34      13.01      17.00
H       1.91      11.33      16.15
H      -3.13      14.19      14.81
H       0.95      12.87      14.44
H      -2.37      11.50      18.72
C      -0.98      14.29      13.19
C      -0.35      10.77      18.65
C      -1.07      13.59      14.50
C      -2.41      12.96      16.43
C      -2.30      13.62      15.22
C       0.01      12.88      15.00
C      -0.09      12.16      16.21
C      -1.33      12.20      16.94
C      -1.43      11.48      18.15
C       0.87      10.72      17.92
C       0.98      11.39      16.72
C      -0.44      10.07      19.96
O       0.18      14.56      12.73
O      -2.09      14.55      12.62
O      -1.59       9.83      20.45
O       0.67       9.78      20.52
