34

H       8.59      19.59       6.21
C      11.59      16.07       6.93
C      14.04      26.98       8.02
C      14.25      25.54       8.38
C      11.24      17.53       6.88
C      15.32      23.82       9.72
C      15.19      25.14       9.35
C      13.44      24.54       7.83
C      13.41      23.21       8.30
C      14.44      22.83       9.22
C      12.43      22.23       7.88
C      12.68      20.84       8.08
C      13.70      20.51       9.02
C      14.52      21.46       9.59
C      11.11      22.57       7.46
C      10.16      21.65       7.08
C      10.50      20.26       7.02
C      11.80      19.86       7.48
C       9.58      19.29       6.55
C       9.94      17.96       6.55
C      12.14      18.50       7.28
I       8.24      22.34       6.64
O      10.98      15.44       7.84
O      12.86      27.28       7.65
O      12.44      15.64       6.10
O      15.02      27.78       8.15
F      15.38      21.06      10.55
F      13.43      18.10       7.44
F       9.04      17.03       6.15
F      16.30      23.50      10.59
F      16.00      26.04       9.93
F      12.74      24.84       6.72
F      13.79      19.27       9.53
F      10.71      23.86       7.60
