14

C       6.87       5.73       1.56
C       4.93       5.14      -1.56
C       5.84       5.52       0.72
C       5.96       5.36      -0.72
H       3.94       5.09      -1.12
H       7.86       5.78       1.12
O       5.66       6.01       3.58
O       6.14       4.86      -3.58
O       7.90       5.62       3.64
O       3.90       5.25      -3.64
C       6.79       5.80       3.03
F       7.24       5.48      -1.16
F       4.56       5.39       1.16
C       5.01       5.08      -3.03
