28

C       8.66       8.67       5.05
C       8.65       8.68       3.56
C       8.64       8.73       0.76
C       8.64       8.66      -5.04
C       8.63       8.67      -3.54
C       8.64       8.71      -0.73
H       7.07      10.15       3.44
H      10.09      10.25      -3.43
H      10.78      11.00      -1.37
O       9.48       7.87       5.62
H      10.23       7.22       3.38
O       7.85       7.84      -5.61
O      10.25      10.46      -0.75
O       9.44       9.47      -5.62
O       7.84       9.45       5.64
O      10.41       7.07       0.80
H       7.07      10.18       0.94
H       7.19       7.14      -0.87
H       7.17       7.10      -3.38
H      10.27       7.18      -0.16
C       7.76       9.52       2.87
C       7.76       9.54       1.48
C       9.46       9.57      -2.86
C       9.46       9.59      -1.46
C       7.81       7.79      -2.83
C       7.82       7.82      -1.44
C       9.54       7.87       2.85
C       9.53       7.89       1.45
