10

H       6.13       7.91       8.96
H       6.67       7.90       5.92
C       6.07       6.04       7.80
O       5.44       5.62       6.78
O       7.52      10.31       6.24
C       6.73       9.76       7.08
O       6.10      10.33       8.04
C       6.52       8.30       6.92
C       6.21       7.51       7.95
O       6.61       5.32       8.72
