46

H      12.18      11.08       8.10
H      12.59      17.57       8.67
H       8.07      11.07       9.18
H      16.42      18.07       6.83
C      14.06      19.37       7.38
C      10.12       9.52       8.12
C      14.43      17.94       7.67
C      10.16      10.93       8.64
C      15.99      16.11       7.56
C       9.13      12.89       9.56
C      15.68      17.42       7.30
C       9.03      11.58       9.16
C      13.55      17.15       8.37
C      11.37      11.60       8.60
C      13.84      15.79       8.64
C      11.53      12.90       9.12
C      15.05      15.21       8.14
C      10.36      13.60       9.61
C      12.83      14.98       9.26
C      12.80      13.59       9.02
C      14.05      13.02       8.61
C      11.80      15.51      10.10
C      15.13      13.78       8.21
C      10.58      14.89      10.20
N      16.32      13.04       7.73
N       9.49      15.52      11.00
N      17.40      15.74       7.32
N       7.82      13.54       9.82
N      14.26      11.55       8.72
N      12.22      16.51      11.14
O      15.00      20.15       7.03
O       9.09       8.82       8.34
O      12.83      19.66       7.53
O      11.17       9.16       7.52
O      16.91      12.32       8.53
O      16.58      13.20       6.53
O       9.07      14.87      11.95
O       9.07      16.61      10.59
O      17.96      16.20       6.32
O      17.94      15.06       8.21
O       7.64      14.63       9.26
O       6.99      12.92      10.49
O      14.16      11.08       9.86
O      14.53      10.93       7.69
O      13.39      16.91      11.12
O      11.40      16.78      12.03
