16

C      30.79      17.43      27.64
C      29.68      20.41      29.33
C      31.95      18.07      27.22
C      28.54      19.76      29.74
C      30.50      19.56      28.56
C      29.95      18.27      28.41
O      26.48      19.51      30.82
O      27.55      21.53      30.92
F      30.48      16.16      27.36
S      32.02      19.72      27.76
C      33.05      17.53      26.41
S      28.44      18.10      29.20
O      34.01      18.35      26.16
O      32.97      16.32      26.04
C      27.45      20.31      30.55
H      29.89      21.45      29.58
