28

H      14.94      18.62       1.20
H      17.59      21.97       0.45
H      18.33      22.48       8.52
H      21.67      23.25       5.87
H      22.15      15.14       5.15
H      22.92      17.73       1.77
C      15.45      19.50       0.82
C      16.60      20.14       1.33
C      16.81      21.21       0.44
C      19.21      22.86       8.01
C      19.84      22.36       6.85
C      20.92      23.26       6.65
C      22.53      15.63       4.26
C      22.04      16.79       3.61
C      22.93      16.96       2.53
C      17.41      19.80       2.43
C      18.20      19.60       3.33
C      20.95      17.62       3.94
C      20.08      18.44       4.13
C      19.51      21.26       6.04
C      19.33      20.36       5.24
N      15.86      21.21      -0.51
N      15.02      20.14      -0.28
N      20.92      24.20       7.61
N      19.85      23.96       8.45
N      23.86      16.00       2.54
N      23.61      15.17       3.62
N      19.13      19.40       4.31
