37

C       4.12      19.91       7.50
C       4.03      20.98       8.60
H       3.83      20.90       4.58
O       2.56      16.73      10.37
H       3.28      19.00       5.79
O       3.08      24.57       1.37
H      -0.27      19.21       5.82
O       0.28      16.73      10.39
H       1.13      18.28       5.30
H       1.61      19.83       3.61
O       0.80      24.56       1.35
H       0.07      20.61       3.98
O       1.40      23.43       6.51
H       1.59      21.54       8.09
H      -0.01      20.97       7.68
H       3.65      21.99       5.95
H      -0.06      22.30       5.75
H       3.96      22.00       8.19
H       3.17      20.81       9.26
H       4.93      20.95       9.23
H       4.13      18.92       7.98
H       5.10      20.00       7.01
H       2.30      23.35       6.89
C       1.94      24.21       1.80
C       1.41      17.08       9.94
C       3.07      19.91       6.38
C       0.80      19.29       5.58
C       1.03      20.28       4.42
C       1.92      23.29       2.91
C       1.58      19.76       6.83
C       3.18      21.13       5.44
C       1.79      21.54       4.92
C       0.97      22.13       6.11
C       1.00      21.12       7.27
C       1.87      22.51       3.84
C       1.46      18.79       7.90
C       1.42      18.00       8.82
