56

H      10.66       7.52       0.77
O      10.67      10.75       5.50
O       7.06       7.40      -5.80
O      10.19      11.02      -5.91
O       9.12      10.05       7.62
O       7.59       7.02       5.39
O      10.72      10.84       2.88
O       7.10       7.36      -3.13
H       6.64       6.88      -5.08
O      10.36      11.02      -3.23
H       7.30      10.65      -1.14
H      10.80      11.42      -5.25
O       7.63       7.03       2.75
H      11.71       9.85       1.31
H      12.57       9.84       2.89
H       5.26       8.37      -3.22
H       6.12       8.47      -1.64
H       5.37       6.92      -2.15
H       9.16      12.05      -1.84
H       9.22      12.76      -3.49
H      10.65      12.87      -2.41
H      10.37       7.69      -1.70
H      12.44      11.36       1.93
H       8.81       5.34       3.16
H       8.99       6.02       1.51
H       7.49       5.16       1.95
O       8.22      10.23      -8.02
H       7.59      10.48       1.33
H      11.06      11.29       4.78
C       8.61       9.20      -7.40
C       8.20       9.87       0.66
C       8.82       9.18      -1.58
C       9.13       8.98       1.21
C       9.01       8.92       7.05
H       7.08       6.64       4.64
C       9.23       8.89       2.70
C       8.67       9.25      -3.06
O       8.79       7.81       7.64
C       9.93       9.81       4.85
C       7.83       8.33      -5.16
C       9.39      10.16      -5.21
C       8.42       7.93       4.80
C       9.97       9.81       3.45
C       9.13       8.88       5.56
C       7.85       8.35      -3.76
C       9.44      10.16      -3.81
C       8.48       7.94       3.39
C      11.93      10.43       2.21
C       5.89       7.82      -2.50
C       9.80      12.25      -2.71
C       8.28       5.82       2.32
C       8.59       9.24      -5.90
C       9.91       8.20       0.35
C       8.04       9.96      -0.72
C       9.76       8.30      -1.03
O       9.03       8.12      -7.92
