26

C       5.27       7.02       3.56
C       5.71       7.00      -3.55
C       5.43       6.97       0.74
C       5.52       6.97      -0.73
H       4.68       4.95       0.91
H       5.98       9.03       3.42
H       6.31       4.95      -3.39
H       4.59       4.98       3.41
H       5.07       9.04      -3.42
O       5.49       8.18       5.60
O       5.88       5.91      -5.65
O       5.55       8.16      -5.61
O       5.08       5.95       5.67
H       6.15       9.00       0.93
H       6.19       4.92      -0.90
H       4.88       9.02      -0.93
C       5.27       7.05       5.06
C       5.72       7.02      -5.05
C       5.77       8.12       1.46
C       5.93       5.82      -1.45
C       5.23       8.13      -1.46
C       4.99       5.84       1.46
C       5.69       8.15       2.85
C       6.01       5.83      -2.84
C       5.32       8.15      -2.85
C       4.92       5.86       2.85
