24

H       5.36       3.57      15.68
H       4.36       1.43      16.68
H       8.27       3.41      12.75
H       8.02      -3.46      12.87
H       9.05      -1.32      11.90
H       5.11      -3.30      15.81
C       5.77      -1.32      15.19
C       4.94      -0.52      16.05
C       5.97       2.92      15.06
C       5.89       1.52      15.13
C       4.99       0.85      16.02
C       7.62       2.83      13.40
C       7.62       1.43      13.38
C       8.46       0.63      12.52
C       7.41      -2.81      13.50
C       7.50      -1.41      13.44
C       8.40      -0.74      12.55
C       5.76      -2.72      15.16
N       6.82       3.54      14.22
N       6.56      -3.42      14.33
C       6.73       0.76      14.27
C       6.66      -0.65      14.30
Cl       3.86      -1.31      17.13
Cl       9.55       1.42      11.45
