26

O       7.40      -2.37      14.57
O       6.32      -1.24      16.22
O       1.60      -6.26      16.18
O       2.78      -7.32      14.55
H       6.26      -4.33      17.08
H       6.85      -4.86      15.50
H       5.27      -6.58      15.49
H       4.67      -6.03      17.07
H       4.30      -5.65      13.38
H       2.99      -4.46      13.42
H       5.86      -3.91      13.38
H       4.55      -2.73      13.46
H       4.39      -2.61      17.21
H       3.70      -1.94      15.74
H       2.12      -3.65      15.70
H       2.80      -4.31      17.18
C       6.44      -2.20      15.40
C       2.57      -6.35      15.36
C       5.95      -4.56      16.05
C       4.89      -5.70      16.04
C       3.59      -5.21      15.37
C       3.92      -4.78      13.93
C       4.96      -3.63      13.94
C       5.36      -3.29      15.39
C       4.11      -2.86      16.18
C       3.06      -4.00      16.16
