34

H      11.65      11.27      14.51
H      16.26      13.31      22.97
H      13.31      10.25      23.61
H      14.90       8.54      17.08
H      15.78      13.28      20.53
H      12.87      10.16      21.16
H      14.49       8.05      14.67
H      14.03       9.57      19.17
H      14.53      13.90      16.98
H      11.24      12.32      16.48
C      13.87      10.47      18.57
C      14.05      11.65      19.22
C      14.82      11.77      23.43
C      13.55      10.21      17.17
C      14.19       9.14      16.51
C      13.97       8.86      15.17
C      15.04      11.90      24.90
C      12.83       9.41      12.99
C      13.07       9.65      14.44
C      12.37      10.68      15.08
C      12.60      10.96      16.43
C      15.25      12.59      21.20
C      14.02      12.98      18.54
C      15.52      12.62      22.56
C      13.87      10.88      22.92
C      13.63      10.83      21.55
C      14.31      11.69      20.67
O      16.07      12.55      25.28
O      13.40       8.40      12.46
O      14.17      11.35      25.67
O      12.06      10.25      12.39
O      13.55      13.99      19.03
O      14.65      12.99      17.33
O      11.90      11.93      17.09
