33

C      13.78      13.40      28.53
H      11.03      11.88      25.10
H      11.44      12.65      27.45
H      10.37      10.32      21.11
C      15.59      10.95      17.84
N      14.26      10.52      17.52
O      12.54       9.41      15.86
O      12.76      13.64      29.25
O      15.00      13.66      28.87
H      15.64      13.01      26.62
H      15.25      12.25      24.26
H      14.43      11.27      20.05
H       9.95       9.57      18.76
O      10.42       9.01      16.51
H      14.08      10.17      16.57
H      16.20      10.82      16.94
H      16.04      10.36      18.65
H      15.62      12.01      18.14
C      11.92      10.00      18.07
C      10.92       9.96      19.06
C      11.15      10.37      20.35
C      12.44      10.85      20.71
C      13.45      10.90      19.75
C      13.24      10.48      18.41
C      14.42      12.33      24.96
C      14.64      12.74      26.27
C      12.26      12.54      26.74
C      12.04      12.12      25.44
C      13.11      12.02      24.52
C      12.89      11.61      23.19
C      12.69      11.26      22.04
C      11.62       9.46      16.75
C      13.56      12.86      27.17
