51

C      24.12      12.03      17.34
C      24.51      10.92      18.03
C      25.53      10.88      19.04
C      25.87      11.88      19.89
H      21.80      10.23      16.64
H      23.51      13.90      15.09
H      32.57       5.16      23.14
H      34.35       6.90      19.59
C      32.12       7.62      21.43
C      31.46       8.06      22.53
C      30.53       9.16      22.54
C      29.71       9.51      21.52
H      24.83      16.78      28.18
H      28.67      17.96      26.54
H      24.07       9.96      17.74
H      26.09       9.94      19.15
H      24.65      12.97      17.53
H      25.30      12.81      19.94
C      26.53      15.95      25.86
C      27.55      15.31      25.22
C      27.34      14.36      24.16
C      28.32      13.55      23.69
N      21.90      12.66      14.51
N      21.36      11.49      15.00
H      31.69       7.60      23.50
H      30.46       9.75      23.46
H      31.99       8.17      20.49
H      29.63       8.91      20.62
N      34.75       5.18      20.75
N      34.19       4.62      21.88
N      27.52      18.58      28.21
N      26.30      18.21      28.73
N      27.82      10.72      20.69
N      29.03      11.58      22.57
N      27.06      12.70      21.80
H      26.34      14.27      23.74
H      29.32      13.55      24.13
C      22.07      11.12      16.08
C      23.10      12.05      16.32
C      22.93      13.00      15.30
H      28.58      15.50      25.53
H      25.50      15.68      25.59
C      33.18       5.42      22.27
C      33.05       6.51      21.39
C      34.07       6.30      20.45
C      25.79      17.23      27.94
C      26.69      16.93      26.91
C      27.77      17.81      27.13
C      26.97      11.76      20.84
C      28.82      10.66      21.60
C      28.12      12.56      22.64
