28

C      21.71      27.94      15.29
C      26.26      24.62      13.69
C      23.18      26.86      17.25
C      24.78      25.70      11.73
O      22.67      27.25      11.11
O      21.34      28.20      12.63
O      26.61      24.35      16.35
O      25.31      25.32      17.87
H      21.04      27.35      15.93
H      21.12      28.38      14.50
H      22.07      28.76      15.93
H      25.89      23.80      13.05
H      26.85      24.19      14.48
H      26.93      25.22      13.05
H      23.18      27.95      17.39
H      23.78      26.42      18.03
H      22.14      26.54      17.39
H      25.82      26.02      11.59
H      24.18      26.13      10.95
H      24.79      24.60      11.59
C      22.35      27.47      12.32
C      25.62      25.09      16.65
C      23.19      26.86      13.44
C      24.78      25.70      15.54
C      22.87      27.10      14.81
C      25.10      25.46      14.17
C      23.65      26.52      15.85
C      24.32      26.04      13.13
