26

H       0.40      18.76      13.98
H       0.40      20.64      15.62
H      -3.69      19.77      16.62
H      -3.67      17.84      15.04
H      -3.66      17.25      12.82
H      -3.61      15.30      11.29
H       0.50      14.57      12.32
H       0.44      16.48      13.91
C      -1.51      13.67      10.76
C      -1.63      21.43      17.20
C      -0.49      18.96      14.58
C      -0.49      20.02      15.48
C      -1.64      20.31      16.22
C      -2.80      19.54      16.03
C      -2.79      18.47      15.14
C      -1.63      18.16      14.40
C      -2.75      16.65      12.73
C      -2.72      15.57      11.86
C      -1.55      14.83      11.69
C      -0.40      15.18      12.43
C      -0.44      16.25      13.31
C      -1.61      17.01      13.47
O      -2.62      13.26      10.27
O      -0.52      22.01      17.42
O      -0.36      13.17      10.50
O      -2.74      21.73      17.76
