20

H      23.78       6.02       6.47
H      23.99      11.52       3.12
H      21.29       7.85       3.12
H      26.48       9.69       6.47
C      25.46       7.62       6.91
C      22.31       9.93       2.68
C      24.66       8.21       5.84
C      23.11       9.34       3.76
C      23.54       7.49       5.31
C      24.23      10.05       4.28
C      22.77       8.06       4.28
C      25.00       9.49       5.31
O      25.13       6.46       7.37
O      26.47       8.28       7.37
O      22.64      11.09       2.23
O      21.30       9.27       2.23
O      23.14       6.28       5.75
O      24.63      11.27       3.84
O      21.72       7.32       3.84
O      26.05      10.23       5.75
