22

H       1.99       6.86       8.99
H       1.91       6.86      11.48
H       6.24       6.86      11.48
H       6.15       6.86       8.99
H       1.91       6.86      15.96
H       1.99       6.86      18.45
H       6.15       6.86      18.45
H       6.24       6.86      15.96
C       2.91       6.86       9.58
C       2.87       6.86      10.97
C       4.07       6.86      11.70
C       5.28       6.86      10.97
C       5.24       6.86       9.58
C       4.07       6.86      13.11
C       4.07       6.86      14.33
C       4.07       6.86      15.75
C       2.87       6.86      16.47
C       2.91       6.86      17.86
C       5.24       6.86      17.86
C       5.28       6.86      16.47
N       4.07       6.86       8.90
N       4.07       6.86      18.54
