36

H       2.03      15.16       4.29
N       1.94      10.52       1.65
H       5.84      16.43       6.16
N      -0.32      14.72       3.30
H       3.87      11.42       3.11
H       7.47      12.47       5.48
N       7.93      17.46       7.33
N       9.70      12.79       6.79
O      11.18      14.87       7.52
O      10.03      16.49       8.65
O      -0.75      10.96       1.60
O      -1.26      13.16       1.28
C      10.14      15.54       7.81
C      -0.53      12.20       1.71
O      -1.30      14.27       3.90
O      -0.17      15.87       2.89
O       1.83      10.63       0.42
O       2.17       9.49       2.28
O       8.74      18.16       6.71
O       7.16      17.83       8.21
O       9.84      12.38       7.95
O      10.26      12.35       5.78
C       0.72      12.60       2.43
C       0.84      13.81       3.13
C       2.00      14.20       3.78
C       3.11      13.34       3.79
C       3.03      12.11       3.12
C       1.87      11.78       2.44
C       4.30      13.71       4.47
C       5.32      14.03       5.06
C       6.50      14.40       5.73
C       6.64      15.70       6.26
C       7.82      16.04       6.90
C       8.88      15.14       7.10
C       8.70      13.86       6.57
C       7.55      13.48       5.89
