27

C      -4.67      -4.86      19.53
C      -3.30      -2.89      20.22
C      -5.56      -3.08      21.07
C      -5.35       1.02      26.03
C      -4.50       0.34      23.46
C      -4.49      -0.63      24.48
C      -4.51      -3.60      20.30
C      -4.91      -0.28      25.75
C      -5.83       1.39      27.39
C      -5.35       1.98      25.00
C      -3.14      -1.68      20.89
C      -4.92       1.64      23.72
C      -4.21      -1.18      21.64
C      -5.42      -1.87      21.74
H      -2.49      -3.30      19.62
H      -6.50      -3.64      21.12
H      -4.16      -1.65      24.26
H      -4.92      -1.02      26.55
H      -5.71       2.99      25.22
H      -2.21      -1.12      20.84
H      -4.90       2.38      22.91
H      -6.24      -1.45      22.32
O      -6.46       2.49      27.50
O      -5.59       0.57      28.34
O      -5.74      -5.53      19.71
O      -3.72      -5.17      18.74
O      -4.03       0.08      22.19
