36

H       0.73      -1.05       6.15
I       5.33      -3.59       1.16
I       3.82      -4.72       4.25
N      -0.19      -2.89       6.68
H       3.25       4.56      -4.67
H       2.90       0.76      -6.76
N       2.47       3.94      -6.54
N       2.36       2.76      -7.19
N       3.74      -1.11       0.11
N       3.87       0.13      -0.09
N      -0.20      -4.14       6.12
H       4.55       3.48      -3.04
H       4.69       2.47      -0.78
H       1.90       0.22       1.44
H       0.69      -0.61       3.47
H       3.15      -0.29      -4.61
H       3.38      -1.31      -2.36
H       0.68      -5.01       4.40
C       0.58      -2.10       5.90
C       3.08       3.73      -5.36
C       2.88       1.79      -6.41
C       3.35       2.36      -5.21
C       1.92      -2.36       3.71
C       3.04      -3.06       3.19
C       3.67      -2.63       2.02
C       3.24      -1.45       1.38
C       2.21      -0.69       1.95
C       1.56      -1.15       3.08
C       4.38       1.87      -1.64
C       4.28       2.43      -2.90
C       4.01       0.53      -1.43
C       3.78       1.69      -3.99
C       3.53       0.31      -3.78
C       0.57      -4.12       5.02
C       3.65      -0.26      -2.53
C       1.10      -2.84       4.82
