18

C       4.33       5.83       2.01
N       6.79       1.20       5.14
O       3.24      -0.93       6.40
C       5.49       1.53       4.90
C       3.26       3.87       3.24
C       4.37       0.78       5.30
C       4.34       4.61       2.83
C       3.66       2.75       4.00
C       5.06       2.66       4.15
H       7.50       1.92       5.08
H       6.94       0.43       5.79
O       5.53      -0.88       6.47
O       5.47       6.34       1.74
O       3.19       6.26       1.64
H       2.23       4.14       2.99
C       4.38      -0.42       6.11
S       2.84       1.44       4.77
S       5.87       3.96       3.35
