18

C      10.76      12.99      19.40
C      12.62      14.13      21.18
C      11.87      13.71      18.93
C      11.51      13.42      21.67
C       9.77      12.33      18.49
C      12.80      14.27      19.80
C      10.60      12.85      20.79
O       8.71      11.88      19.03
O      11.37      14.82      16.95
O      13.04      13.38      16.96
H      11.39      13.32      22.75
H      13.66      14.82      19.42
H       9.74      12.29      21.15
N      12.10      13.97      17.49
C      13.60      14.75      22.12
O      13.39      14.58      23.36
O      14.57      15.39      21.59
O      10.09      12.24      17.26
