20

H      12.98       2.15       1.40
H      11.31       3.29       2.86
H      15.69       1.84       4.74
H      15.78       3.90       7.03
C      15.49       1.31       2.11
C      14.45       1.94       2.98
C      13.20       2.32       2.45
C      12.26       2.94       3.27
C      12.52       3.12       4.64
C      11.45       3.73       5.50
C      13.75       2.69       5.16
C      14.73       2.13       4.33
S      14.03       2.69       6.91
O      16.66       1.81       2.19
O      15.13       0.33       1.39
O      10.64       2.91       6.04
O      11.44       5.00       5.57
O      13.34       3.79       7.53
O      13.87       1.34       7.38
O      15.62       2.94       7.02
