36

C       7.71      10.29      12.08
C       6.46       8.74      10.63
C       5.33      10.72      11.60
C       6.57      12.15      13.16
C       6.42      11.63      14.59
C       6.41      12.77      15.59
C       4.10       9.17      10.15
C       3.27       8.24      11.03
C       1.99       7.78      10.34
C       8.81       8.31      11.18
C       9.83       8.86      10.19
C      11.09       7.99      10.18
N       6.54      11.04      12.20
N       5.35       9.57      10.81
N       7.62       9.15      11.29
H       7.53      12.67      13.03
H       5.75      12.83      12.89
H       7.24      10.95      14.84
H       5.47      11.09      14.68
H       3.54      10.09       9.92
H       4.37       8.67       9.22
H       3.85       7.34      11.30
H       2.99       8.74      11.97
H       9.26       8.25      12.18
H       8.47       7.32      10.88
H       9.42       8.85       9.17
H      10.11       9.89      10.43
O       8.75      10.61      12.65
O       6.41       7.72       9.95
O       4.32      11.40      11.74
O       5.52      13.69      15.39
O       7.24      12.81      16.54
O       1.74       8.36       9.22
O       1.28       6.90      10.90
O      11.01       6.81      10.62
O      12.14       8.56       9.70
