26

C      11.89       9.59       6.71
C      14.32      -1.00       9.18
C      11.54       8.49       7.55
H      13.44      10.92       4.29
H      12.31      -0.02      11.45
C      12.75       9.65       5.53
C      13.59      -0.96      10.44
C      14.47      -0.12       8.07
H      10.19       8.59       9.34
H      15.95      -0.39       6.40
N      15.20      -2.01       9.07
N      10.53      10.39       8.25
N      15.94      -1.84       7.97
N      11.26      10.69       7.16
O      13.33       8.72       5.01
O      12.85      10.96       5.06
O      13.80      -1.77      11.36
O      12.70       0.04      10.55
C      13.85       1.10       7.81
C      11.93       7.15       7.47
C      13.40       2.24       7.64
C      12.24       5.96       7.44
C      12.95       3.49       7.52
C      12.60       4.67       7.46
C      10.68       9.07       8.51
C      15.51      -0.72       7.33
