16

H       1.89      23.08      16.35
C       1.99      25.20      10.77
C       2.00      25.19      18.30
C       1.96      26.29      13.10
C       1.93      24.11      15.98
C       1.99      25.20      12.25
C       1.98      25.21      16.82
C       2.00      24.50      14.63
C       2.02      25.90      14.46
S       2.06      23.69      13.11
S       2.08      26.72      15.97
Br       1.93      28.09      12.55
O       2.92      24.55      10.19
O       1.06      25.83      10.18
O       2.93      25.83      18.89
O       1.07      24.53      18.88
