46

O       2.68      16.28      12.07
O       4.32      17.12      10.81
O       6.77      16.03      10.91
O      -0.37       1.55      18.82
O      -2.01       0.71      20.07
O      -4.45       1.80      19.98
H      -0.86       3.77      17.91
H      -4.76       5.46      17.34
H      -5.74       3.68      18.78
H       1.20       7.28      17.70
H       3.19       8.75      17.34
H       4.35      10.52      16.02
H       3.17      14.07      12.97
H       7.07      12.37      13.54
H       8.06      14.15      12.11
H       1.11      10.56      13.19
H      -0.88       9.09      13.54
H      -2.03       7.32      14.87
C      -1.56       1.62      19.26
C      -2.46       2.71      18.88
C      -1.92       3.77      18.13
C      -2.72       4.79      17.62
C      -4.12       4.71      17.81
C      -4.67       3.71      18.59
C      -3.87       2.71      19.18
C      -0.46       7.18      16.35
C       0.78       7.67      16.77
C       1.46       8.66      16.04
C       2.73       9.16      16.45
C       3.38      10.13      15.72
C       3.87      16.22      11.62
C       4.78      15.12      12.01
C       4.24      14.07      12.76
C       5.04      13.04      13.26
C       6.43      13.12      13.08
C       6.99      14.12      12.29
C       6.19      15.12      11.70
C       2.77      10.65      14.54
C       1.54      10.16      14.11
C       0.86       9.17      14.84
C      -0.42       8.67      14.44
C      -1.06       7.70      15.17
N      -2.23       5.89      16.89
N      -1.01       6.16      17.13
N       4.54      11.95      13.99
N       3.32      11.68      13.75
