10

H       5.92       8.21      50.85
O       5.75      10.76      50.97
H       5.76       8.14      53.93
O       5.86      10.53      53.23
O       6.11       5.79      51.61
O       5.63       5.60      53.83
C       5.82      10.07      52.05
C       5.86       8.59      51.87
C       5.83       7.75      52.91
C       5.87       6.27      52.76
