18

C      18.93      12.15       4.34
C      18.06      11.06       4.14
H      15.92       9.41       4.30
H      14.93      10.53       5.23
N      15.77      10.33       4.68
O      22.31      10.97       1.95
S      18.22      13.39       5.31
S      18.76       9.83       3.18
H      21.00      12.68       3.68
O      14.58      12.20       6.28
O      21.11       9.02       1.77
C      15.63      12.95       6.22
C      21.30      10.22       2.19
O      15.76      14.10       6.79
C      16.79      11.22       4.77
C      20.17      11.98       3.68
C      16.74      12.45       5.45
C      20.22      10.77       3.02
