36

C       5.71      10.82      17.30
C       5.00      11.66      16.43
C       3.61      11.65      16.42
C       5.00       9.98      18.17
C       3.61       9.98      18.17
C       2.89      10.82      17.30
C       1.42      10.82      17.30
C       0.70      10.81      18.50
C       0.70      10.83      16.09
C      -5.71      10.82      17.30
C      -5.00       9.98      16.43
C      -3.61       9.98      16.42
C      -5.00      11.66      18.17
C      -3.61      11.65      18.17
C      -2.89      10.82      17.30
C      -1.42      10.82      17.30
C      -0.70      10.81      16.09
C      -0.70      10.83      18.50
H       5.56      12.32      15.76
H       3.07      12.33      15.76
H       5.56       9.32      18.83
H       3.07       9.31      18.83
H       1.24      10.82      19.45
H       1.24      10.82      15.14
H      -5.56       9.32      15.76
H      -3.07       9.31      15.76
H      -5.56      12.32      18.83
H      -3.07      12.33      18.83
H      -1.24      10.82      15.14
H      -1.24      10.82      19.45
O       7.78      10.03      18.12
O       7.78      11.61      16.48
C       7.20      10.82      17.30
O      -7.78      11.61      18.12
C      -7.20      10.82      17.30
O      -7.78      10.03      16.48
