60

H       1.73      27.34      12.53
H       1.73      27.39      15.03
H       4.06      33.42      23.19
H       3.96      31.27      21.90
H       3.15      19.38      26.36
H       3.19      21.57      25.15
H       1.74      31.65      26.35
H       1.75      29.46      25.14
H       3.99      23.68      12.60
H       3.87      23.64      15.10
H       0.79      17.67      23.20
H       0.94      19.81      21.92
C       2.89      25.51      10.93
C       1.93      17.11      25.59
C       2.92      33.94      25.59
C       2.22      26.55      13.11
C       2.21      26.58      14.49
C       3.54      32.55      23.59
C       3.49      31.36      22.88
C       2.64      19.50      25.41
C       2.67      20.71      24.73
C       2.25      31.54      25.39
C       2.24      30.33      24.71
C       3.48      24.47      13.14
C       3.42      24.46      14.53
C       1.33      18.52      23.61
C       1.41      19.71      22.90
C       2.86      25.51      12.42
C       2.80      25.52      15.22
C       2.76      25.52      16.63
C       2.72      25.52      17.85
C       2.67      25.51      19.26
C       2.91      32.66      24.84
C       2.85      30.23      23.44
C       2.82      29.01      22.74
C       2.78      27.96      22.12
C       2.70      26.75      21.42
C       1.96      18.40      24.85
C       2.07      20.83      23.46
C       2.16      22.04      22.74
C       2.26      23.07      22.11
C       2.42      24.28      21.40
C       2.79      26.71      20.00
C       2.52      25.52      22.08
C       2.48      24.32      19.99
N       2.44      25.52      23.55
N       2.33      23.05      19.25
N       3.03      27.97      19.29
O       3.86      34.77      25.33
O       3.83      24.87      10.35
O       2.86      16.91      26.45
O       1.99      34.14      26.44
O       0.99      16.29      25.33
O       1.96      26.15      10.33
O       1.64      26.31      24.06
O       3.18      24.73      24.15
O       1.48      22.26      19.67
O       3.07      22.88      18.27
O       2.34      28.19      18.28
O       3.90      28.71      19.75
