30

F       3.87       1.84      18.79
H       7.70       5.08      12.28
H       3.81       6.34      13.63
H       2.81       5.34      15.66
H       2.91       3.71      17.51
H       7.81       0.34      17.15
H       8.82       1.33      15.07
H       8.76       3.03      13.28
C       5.83       6.99      11.95
C       6.86       4.94      12.96
C       5.77       5.82      12.87
C       4.67       5.67      13.73
C       4.69       4.72      14.75
C       5.80       3.82      14.85
C       6.87       3.91      13.91
C       3.65       4.65      15.74
C       3.70       3.75      16.77
C       4.79       2.82      16.86
C       5.84       2.86      15.90
C       6.95       1.96      15.99
C       7.98       2.03      15.00
C       7.95       2.96      14.00
C       4.87       1.85      17.87
C       5.93       0.94      17.97
C       6.98       1.03      17.04
C       5.96      -0.16      18.98
O       4.72       7.58      11.67
O       6.98       7.35      11.55
O       4.84      -0.61      19.36
O       7.11      -0.59      19.32
