16

C       4.88       3.07       3.35
Cl       7.59       1.59       3.75
Cl       2.13       1.57       3.33
C       4.89      -2.86       3.50
Cl       2.15      -1.35       3.73
Cl       7.60      -1.34       3.09
C       4.88      -1.34       3.46
C       4.88       1.55       3.44
C       3.68      -0.60       3.53
C       6.08       0.82       3.49
C       3.67       0.81       3.44
C       6.08      -0.59       3.38
O       5.89       3.63       2.84
O       3.86       3.68       3.81
O       3.82      -3.44       3.15
O       5.94      -3.45       3.89
