28

C      -2.24      -1.64      17.35
C      -0.38      -0.96      20.60
C      -1.48      -1.14      21.60
H       0.96      -1.57      16.18
H       1.40      -1.13      18.61
C      -1.81      -0.06      22.43
H      -2.83      -1.34      19.39
C      -2.84      -0.18      23.36
H      -3.25      -1.79      16.98
C      -3.54      -1.39      23.48
H      -1.26       0.88      22.33
C      -3.18      -2.49      22.68
H      -3.13       0.66      23.99
C      -2.17      -2.35      21.73
C      -4.66      -1.52      24.46
H      -3.71      -3.43      22.81
H      -1.91      -3.21      21.10
C      -1.43      -2.08      15.02
O      -2.60      -2.50      14.74
O      -0.47      -2.01      14.19
C      -1.17      -1.70      16.44
C       0.14      -1.50      16.90
O      -5.27      -2.64      24.52
C       0.39      -1.28      18.24
O      -4.94      -0.50      25.17
O       0.73      -0.57      20.96
C      -0.68      -1.24      19.16
C      -1.99      -1.40      18.70
