24

H       6.49       5.36      24.79
H       4.21       4.34      24.63
S       5.54       7.41      25.08
H       3.69       5.83      23.83
N       5.65       5.90      24.53
H       6.76       7.64      27.68
H       5.78       7.49      29.99
H       1.88       6.82      28.31
O       6.05       4.64      22.14
H       2.85       6.94      26.01
O       3.91       4.02      21.96
O       6.89       7.91      25.20
O       4.56       8.10      24.26
O       3.98       7.04      31.65
O       1.90       7.15      30.76
C       4.89       4.56      22.60
C       4.55       5.16      23.97
C       4.86       7.31      26.72
C       5.69       7.45      27.83
C       5.15       7.36      29.11
C       3.77       7.14      29.28
C       2.95       6.98      28.16
C       3.49       7.06      26.88
C       3.16       7.10      30.66
