10

H       1.91       7.74       9.68
C       0.04       8.91       9.73
C       3.83       9.66       9.78
O      -0.44      10.08       9.78
C       1.52       8.76       9.73
C       2.36       9.81       9.80
O      -0.63       7.82       9.68
H       1.97      10.83       9.83
O       4.32       8.50       9.99
O       4.50      10.72       9.56
