18

C       3.82       2.76       5.82
C       1.55       4.02       6.22
S       2.56       3.61       3.71
S       6.18       1.70       4.53
O       0.49       4.28       5.55
O       6.98       1.43       0.69
O       1.76       4.26       7.44
O       8.12       0.83       2.58
C       4.89       2.50       2.38
C       2.64       3.40       5.43
C       6.05       1.87       2.80
C       4.09       2.85       3.49
C       4.66       2.46       4.72
N       4.16       2.31       7.16
O       5.38       2.21       7.39
C       7.13       1.34       1.95
O       3.26       1.99       7.94
H       4.66       2.69       1.33
