27

H       8.61       4.31       5.24
H      12.92       1.81       5.86
H      12.01       0.65       4.87
H      12.20       2.32       4.30
O       7.93       0.38       0.91
O       9.42       4.42      12.25
H      11.17       4.36       6.50
O      11.64       4.65      11.84
O      10.21       0.47       0.89
H       8.06       0.56       6.48
H      10.62       0.60       7.73
H       7.52       3.12       7.58
C      10.45       4.26      11.54
C      10.16       1.42       7.16
C       8.75       1.41       6.50
C       9.07       1.34       2.69
C      10.29       3.63      10.26
C      10.79       2.09       5.90
C       9.36       2.07       5.20
C      10.47       3.51       6.48
C       9.86       2.85       7.78
C       9.06       3.49       5.81
C       8.44       2.82       7.08
C       9.15       1.69       3.86
C      10.11       3.25       9.12
C       9.08       0.71       1.41
C      12.05       1.70       5.20
