22

H       8.22       4.66      10.30
H       5.85       4.66      15.35
H       3.97       4.66      10.92
H      10.10       4.66      14.73
H       9.76       4.66      12.26
H       4.30       4.66      13.40
C       4.97       4.66      11.36
C       6.70       4.66      14.67
C       7.37       4.66      10.99
C       6.47       4.66      13.27
C       7.60       4.66      12.38
C       8.20       4.66      16.65
C       5.87       4.66       9.00
C       6.08       4.66      10.48
C       7.98       4.66      15.18
C       8.91       4.66      12.93
C       5.16       4.66      12.72
C       9.10       4.66      14.30
O       7.17       4.66      17.40
O       6.90       4.66       8.25
O       9.41       4.66      17.07
O       4.66       4.66       8.58
