26

O      -2.22      -0.28       8.71
O       2.30     -10.73       6.85
O      -3.36      -0.93       6.85
H      -0.63      -1.93       9.55
H       0.65      -9.10       6.05
H       0.60      -4.07       9.58
O       3.43     -10.07       8.71
H      -0.60      -6.98       6.05
H      -2.77      -3.17       6.05
H      -1.57      -5.32       6.05
H       2.79      -7.86       9.55
H       1.56      -5.73       9.58
C      -2.50      -1.11       7.78
C       2.57      -9.89       7.78
C      -1.77      -2.41       7.79
C       1.81      -8.61       7.79
C      -0.82      -2.69       8.79
C      -0.14      -3.90       8.79
C       0.84      -8.35       6.82
C       0.14      -7.15       6.83
C       2.05      -7.65       8.79
C       1.34      -6.46       8.79
C      -2.03      -3.38       6.82
C      -1.34      -4.59       6.83
C      -0.37      -4.88       7.81
C       0.37      -6.17       7.81
