34

H       5.08      18.76       2.79
H       8.34      26.01      -2.79
H       5.31      21.96      -0.48
H       8.11      22.81       0.48
H       8.96      21.84       2.41
H       4.46      22.94      -2.41
H       8.27      24.38      -0.94
H       5.16      20.39       0.94
H       4.65      24.65      -5.61
H       8.77      20.12       5.61
C       6.93      18.30       4.68
C       6.49      26.47      -4.68
C       6.96      19.36       3.63
C       6.46      25.41      -3.63
C       5.93      19.44       2.69
C       7.50      25.33      -2.69
C       5.98      20.36       1.65
C       7.44      24.41      -1.65
C       7.08      21.24       1.52
C       6.35      23.53      -1.52
C       8.11      21.15       2.47
C       5.31      23.62      -2.47
C       8.06      20.24       3.53
C       5.36      24.53      -3.53
C       7.18      22.24       0.47
C       6.24      22.53      -0.47
C       4.31      24.43      -4.57
C       9.11      20.34       4.57
O       8.07      17.91       5.12
O       5.36      26.87      -5.12
O       5.79      17.88       5.06
O       7.63      26.89      -5.06
O       3.16      24.06      -4.35
O      10.26      20.71       4.35
