20

C      15.47      10.11      28.55
C      16.87      10.30      28.58
S      14.68      11.34      27.65
S      17.66       9.07      29.49
S      18.98      11.96      27.86
H      14.02       8.60      29.35
H      19.89      10.96      26.22
C      16.14      13.30      26.43
C      16.10       7.05      30.58
O      17.24      13.74      25.97
O      14.97      13.77      26.21
O      17.22       6.65      31.03
O      14.96       6.49      30.73
O      19.43      11.82      26.31
O      19.09      13.34      28.20
O      19.69      10.94      28.60
C      17.28      11.45      27.86
C      15.04       8.95      29.24
C      16.19      12.11      27.29
C      16.13       8.30      29.79
