16

O       7.08       9.99      12.38
O      10.57      13.85       7.23
O       8.74      11.15      13.38
O       8.91      12.69       6.22
C       8.06      10.79      12.35
C       9.59      13.05       7.25
C       8.47      11.36      11.04
C       9.18      12.48       8.57
H       6.81      10.47       9.99
C       7.69      11.11       9.90
C       9.61      12.18      10.93
C       8.04      11.66       8.67
H       7.44      11.46       7.79
H      10.21      12.38      11.82
C       9.96      12.73       9.71
H      10.84      13.37       9.61
