16

O      22.22      21.22      30.59
F      18.38      20.40      27.71
F      22.56      17.24      29.26
O      23.41      19.29      30.68
C      18.54      17.66      26.62
C      19.51      18.28      27.58
C      21.44      19.36      29.36
C      19.41      19.60      28.06
C      21.54      18.04      28.89
C      20.35      20.13      28.93
C      22.44      20.00      30.28
C      20.59      17.51      28.02
O      18.69      16.42      26.38
O      17.65      18.42      26.11
H      20.24      21.15      29.28
H      20.70      16.48      27.67
