12

N       4.24      11.09       5.10
N       3.55      13.16       4.16
H       2.29      11.54       4.50
H       4.99      14.65       3.94
H       6.24      10.90       5.66
C       7.25      13.29       5.06
C       5.83      12.86       4.86
C       5.49      11.57       5.25
C       3.31      11.92       4.57
C       4.81      13.63       4.29
O       7.41      14.58       5.10
O       8.14      12.43       5.17
