26

C      12.79       6.20       0.15
C      14.22       5.63       0.12
C      14.42       4.69       1.32
C      13.38       3.54       1.28
O      15.09       7.63      -0.82
O      16.18       6.73       0.96
O      10.61       2.63      -1.00
O      11.53       1.62       0.82
H      15.42       4.42      -1.23
H      14.26       5.49      -2.04
H      12.72       3.74      -2.11
H      13.88       2.68      -1.29
H      11.10       5.13      -0.78
H      11.10       5.07       0.99
H      12.66       6.88      -0.70
H      12.66       6.79       1.07
H      15.44       4.30       1.32
H      14.32       5.27       2.25
H      12.76       3.53       2.18
H      13.89       2.56       1.25
C      15.24       6.75       0.09
C      11.46       2.56      -0.05
C      14.39       4.81      -1.18
C      13.36       3.65      -1.23
C      12.48       3.68       0.04
C      11.75       5.04       0.10
