32

N       5.74       3.09      26.78
H       5.73       2.05      24.41
H       4.76      -0.98      21.34
H       9.23      -0.42      24.95
H       4.97       3.33      26.16
H       5.62       3.28      27.77
N       8.07      -0.32      17.28
Cl       9.89       0.07      27.60
Cl       9.12       0.59      19.85
Cl       3.49      -2.02      19.16
O       6.61      -2.02      16.03
O       6.83       2.64      29.18
O       9.07       2.54      28.97
H       8.95       0.12      17.52
H       7.99      -0.81      16.40
O       4.42      -2.19      16.50
C       5.91      -1.19      18.11
C       5.05      -1.29      19.23
C       5.43      -0.85      20.49
C       6.70      -0.28      20.70
C       7.56      -0.13      19.60
C       7.20      -0.55      18.29
C       8.52       0.32      25.33
C       8.62       0.77      26.64
C       6.64       2.16      26.37
C       6.54       1.69      25.04
C       7.48       0.80      24.52
C       7.31       0.39      23.17
C       7.08       0.10      22.01
C       5.62      -1.82      16.81
C       7.72       1.70      27.20
C       7.88       2.31      28.54
