20

H       4.72       1.09       1.68
H       7.58       4.48       5.55
H       7.80       2.93       6.44
C       7.48       1.22       1.39
C       4.26       3.07       5.94
C       7.18       2.34       3.63
C       6.63       1.73       2.50
C       5.24       1.55       2.52
C       4.49       1.93       3.64
C       5.03       2.58       4.77
C       6.41       2.79       4.69
C       7.58       3.39       5.46
C       8.45       2.84       4.28
O       7.07       1.36       0.19
O       3.28       2.34       6.37
O       4.64       4.17       6.45
O       8.57       0.67       1.76
F       3.16       1.68       3.61
F       9.17       3.79       3.58
F       9.37       1.88       4.65
