29

C       8.01       9.29       6.01
C       9.16       9.91       6.53
C       8.55      10.06       3.78
H      10.89      11.11       6.02
C       8.18      10.21       2.35
H      10.30      11.30       3.60
H       8.69       7.78       8.09
H       7.33       8.77       6.69
H       6.83       8.86       4.26
H      10.44      11.71       8.17
H      11.19      11.29      10.49
C       9.25       6.98      10.54
O      11.86       9.96      12.34
O      10.70       8.03      12.58
O       8.67      11.17       1.69
H       8.60       6.43       9.85
H      10.14       6.38      10.75
O       7.31       9.37       1.89
H       8.74       7.09      11.51
C      10.38       9.31      10.60
C       9.62       8.31       9.94
C       9.22       8.57       8.62
C       9.53       9.76       7.95
C      10.99       9.07      11.94
C      10.23      10.76       8.65
C      10.64      10.52       9.95
C       9.98      10.64       5.64
C       9.67      10.73       4.29
C       7.72       9.35       4.65
