18

C       5.10      -2.50       7.86
C       7.61       0.00      11.40
O       4.41       2.43       6.79
C       5.06       0.00       7.95
C       5.46      -1.21       8.52
C       6.67       0.00      10.23
O       5.55      -3.57       8.40
H       6.60      -2.15      10.09
C       5.10       2.50       7.86
O       4.41      -2.43       6.79
H       6.60       2.16      10.09
O       7.98       1.14      11.84
O       7.98      -1.14      11.84
C       5.46       1.21       8.52
C       6.27      -1.21       9.66
C       6.27       1.21       9.66
H       4.45       0.00       7.05
O       5.55       3.57       8.40
