20

C       4.84       1.40       1.08
C       4.89      -1.49       1.13
C       3.68       0.63       1.14
C       6.08      -0.73       1.07
C       3.70      -0.76       1.18
C       6.05       0.67       1.05
C       2.16       0.69       1.20
C       2.19      -0.89       1.26
H       7.03      -1.26       1.04
H       6.98       1.23       1.02
H       1.74       1.20       2.08
H       1.68       1.10       0.30
H       1.72      -1.41       0.42
H       1.82      -1.33       2.19
O       5.97       3.47       1.00
O       3.70       3.47       1.06
C       4.84       2.89       1.04
C       4.91      -2.98       1.13
O       3.77      -3.57       1.17
O       6.04      -3.56       1.08
