10

C       8.47       4.10       6.72
H       8.89       4.69       7.54
O       6.43       4.87       5.83
O      11.44       2.93       5.13
H       8.92       2.86       5.05
C       6.98       4.04       6.62
O       6.41       3.17       7.36
C      10.76       3.55       6.01
O      11.22       4.24       6.99
C       9.29       3.46       5.87
