16

C       1.37      11.67       5.98
O       4.05      13.23       7.98
H       5.06      11.12       6.93
O       4.05       9.17       5.63
H       0.33      11.83       5.71
O       1.52      14.42       8.28
C       3.37      12.43       7.15
O       1.52       8.31       4.75
C       3.37      10.28       5.91
O      -0.03      13.89       6.75
C       4.02      11.29       6.65
O      -0.02       9.90       4.44
C       1.99      12.63       6.78
C       1.99      10.50       5.55
C       1.12      13.71       7.27
C       1.12       9.54       4.86
