34

H       9.40       7.05       7.09
H      18.62       9.20      10.04
C      10.25       8.86       9.69
C      17.77       7.39       7.44
C      11.63       8.70       9.73
C      16.39       7.55       7.40
C      12.26       7.91       8.75
C      15.76       8.34       8.38
C      11.42       7.30       7.81
C      16.60       8.95       9.32
C      10.05       7.51       7.83
C      17.97       8.74       9.29
N       9.47       8.30       8.76
N      18.55       7.96       8.36
N      13.65       7.67       8.80
N      14.37       8.58       8.33
N      18.46       6.59       6.39
N       9.56       9.67      10.73
N      15.60       6.94       6.30
N      12.41       9.31      10.83
N      11.95       6.37       6.79
N      16.07       9.88      10.34
O      19.01       5.56       6.77
O      18.40       7.05       5.25
O       9.01      10.70      10.34
O       9.62       9.21      11.87
O      14.78       7.68       5.76
O      15.86       5.77       6.02
O      13.24       8.57      11.37
O      12.16      10.48      11.10
O      11.24       6.14       5.81
O      13.04       5.85       7.04
O      16.78      10.10      11.32
O      14.97      10.40      10.09
