30

O       3.40       9.32       1.82
O       9.89       8.49      -1.82
H       5.04       7.99       2.08
H       8.25       9.82      -2.08
H       9.88       5.82       1.31
H       3.41      11.98      -1.31
H       3.33      11.10       0.86
H       9.96       6.71      -0.86
C       6.71       6.02       2.75
C       6.58      11.79      -2.75
C       6.83       6.93       1.58
C       6.46      10.88      -1.58
C       5.13      10.01       0.26
C       8.17       7.80      -0.26
C       5.34      10.98      -0.72
C       7.96       6.83       0.72
C       7.39       9.87      -1.42
C       5.90       7.94       1.42
C       7.23       8.87      -0.42
C       6.07       8.93       0.42
C       8.89       5.64       0.86
C       4.41      12.16      -0.86
C       3.88      10.14       1.04
C       9.41       7.66      -1.04
O       7.73      12.02      -3.24
O       5.56       5.79       3.24
O       7.82       5.59       3.21
O       5.47      12.22      -3.21
O       8.55       4.54       0.46
O       4.74      13.27      -0.46
