28

H       1.86       0.63      11.81
H       2.06      -0.05      14.21
H      -2.16       0.66      14.72
H       3.25      -0.92      17.75
H      -0.97      -0.21      18.27
H      -0.76      -0.89      20.67
C       1.37      -1.70      22.01
C      -0.28       1.44      10.47
C      -0.25       1.03      11.90
C       0.99       0.63      12.46
C       1.11       0.25      13.79
C      -0.03       0.28      14.62
C      -1.28       0.64      14.09
C      -1.36       1.01      12.75
C       2.37      -0.90      18.39
C       1.12      -0.54      17.86
C      -0.01      -0.51      18.69
C       0.11      -0.89      20.02
C       1.34      -1.28      20.58
C       2.46      -1.27      19.73
N      -0.03      -0.05      15.99
N       1.12      -0.21      16.49
O       0.24      -1.75      22.59
O      -1.39       1.72       9.93
O       0.86       1.49       9.89
O       2.49      -1.98      22.55
F      -2.59       1.38      12.30
F       3.68      -1.64      20.18
