14

C      14.06       4.73       2.98
O      15.22       4.61      -3.55
H      16.07       4.67      -1.22
C      15.09       4.62       0.73
C      15.10       4.64      -0.73
H      13.00       4.93       1.10
O      15.20       4.61       3.55
H      16.05       4.49       1.23
C      14.00       4.60      -1.51
C      14.00       4.77       1.51
O      12.93       4.82       3.58
H      12.99       4.54      -1.11
O      12.94       4.71      -3.58
C      14.07       4.64      -2.99
