19

H       0.31       0.82       9.29
H       4.18       0.84       7.43
H       0.35      -1.69       9.29
H       5.13      -1.07       6.56
H       4.18      -2.57       6.40
H       5.19      -2.33       7.82
C       2.26       2.46       8.40
C       2.25      -3.31       8.46
C       2.28      -1.82       8.36
C       2.26       0.97       8.38
C       3.38      -1.13       7.80
C       1.16       0.27       8.89
C       3.34       0.27       7.84
C       1.18      -1.12       8.88
C       4.53      -1.81       7.11
O       3.40       3.04       8.38
O       3.36      -3.91       8.58
O       1.11      -3.87       8.46
O       1.13       3.04       8.44
