13

H       9.55       1.67      17.98
N      10.77       4.85      17.78
N       8.72       4.16      18.20
C       9.97       5.93      17.94
H       9.55       8.02      17.98
H      10.88       2.13      16.90
H      11.15       2.13      18.66
H      10.88       7.56      16.90
C      10.41       2.34      17.87
C      10.41       7.35      17.87
C       9.97       3.76      17.94
H      11.15       7.56      18.66
N       8.72       5.53      18.20
