20

H       9.32       7.90      14.86
H       5.09       8.88      17.30
H       9.32       8.05      17.35
H       5.08       8.72      14.81
O       8.30       8.38      10.03
O       6.09       7.82      10.05
O       6.10       8.95      22.11
O       8.30       8.37      22.14
C       7.19       8.12      10.62
C       7.20       8.64      21.54
C       8.40       8.20      16.78
C       6.00       8.57      15.38
C       8.40       8.12      15.40
C       6.01       8.66      16.76
C       7.21       8.47      17.48
C       7.20       8.30      14.68
C       7.21       8.55      18.89
C       7.20       8.23      13.27
C       7.19       8.17      12.05
C       7.20       8.60      20.11
