22

C       3.97      13.85       4.26
C       2.99      16.06       4.26
C       3.26      14.83       3.61
H       6.16      12.44       8.08
C       5.37      14.45       8.21
H       3.21      17.22       6.05
C       4.63      15.46       7.62
H       4.18      12.91       3.76
C       4.31      16.66       8.49
H       2.43      16.84       3.75
H       2.89      14.66       2.60
H       5.75      14.60       9.22
O       4.84      10.66       6.20
O       6.12      11.58       4.60
O       4.91      16.73       9.62
O       3.48      17.53       8.11
C       5.40      11.67       5.63
C       5.16      13.01       6.27
C       4.16      15.28       6.27
C       4.44      14.04       5.59
C       5.61      13.22       7.56
C       3.43      16.28       5.55
