14

O      -0.90       2.11       5.43
C       0.03      -1.00      11.09
H      -1.03       1.10       7.63
C       0.69       0.73       6.50
C       0.27       1.59       5.35
O      -0.69      -0.92      12.15
C       0.33      -0.15       8.77
C      -0.41      -0.22       9.91
H      -1.36       0.30      10.00
H       1.28      -0.67       8.75
O       1.08      -1.72      10.98
H       1.67       0.26       6.41
C      -0.06       0.59       7.61
O       1.10       1.77       4.40
