26

C       7.77       7.73       9.46
H       8.91       4.37       3.48
C       6.88       9.76      10.63
H       4.93       5.63       4.53
C       7.67       6.40       9.09
H       5.34       4.77       6.84
S       6.18       4.00       9.12
S       7.76       3.45       7.96
H       4.76       8.00      11.02
H       8.65       8.32       9.21
N       5.50       6.28      10.14
H       8.46       5.88       8.56
N       8.32       4.00       5.44
C       6.70       5.59       2.43
O       5.84      10.37      11.05
C       6.90       5.10       3.83
O       8.06      10.24      10.58
C       8.10       4.48       4.20
O       5.50       5.85       2.10
C       5.89       5.19       4.80
O       7.74       5.70       1.70
C       6.11       4.72       6.08
C       7.35       4.12       6.37
C       6.51       5.72       9.48
C       5.60       7.57      10.48
C       6.73       8.35      10.17
