30

H      12.65      12.61      16.93
I       7.06       9.36      22.98
H      12.36      13.64      21.60
H       6.98       9.69      20.30
Br      11.51      13.05      24.01
Br      13.50      14.16      18.98
H       9.33      10.00      16.15
Br       7.02       9.32      17.42
O      11.20       9.81      14.57
O      12.61      11.60      14.66
O       7.71      11.34      25.17
O       8.71      13.33      24.85
C       8.50      12.13      24.52
C      11.75      12.12      17.28
C      11.33      12.28      18.61
C      10.65      12.32      21.39
C      11.64      10.86      15.11
C      11.76      13.06      20.90
C      12.06      13.07      19.57
C      10.29      12.31      22.75
C       9.11      11.68      23.22
C       9.87      10.65      16.84
C       9.40      10.82      18.14
C      10.17      11.59      19.08
C       8.20      10.20      18.64
C       7.88      10.20      19.96
C       8.69      10.87      20.93
C       9.82      11.62      20.46
C       8.41      10.84      22.32
C      11.05      11.26      16.43
