32

H       7.19       5.67      20.30
H       4.43       8.09      19.75
H       4.86       6.37      19.89
H       4.33       6.47      22.16
H       4.08       8.22      22.07
N       6.84       5.27      22.73
H       7.90       9.37      20.37
O       7.26       5.95      15.73
H       8.49       6.87      20.50
H       8.10       6.91      22.80
H       5.92       9.83      22.47
O       8.24       7.99      15.46
H       6.22       9.86      20.14
H       7.58       9.27      22.70
O       5.38       9.36      26.93
O       4.31       7.36      27.11
O       6.00       4.62      22.09
O       7.40       4.89      23.77
C       7.54       7.12      16.11
C       7.43       6.66      20.71
C       5.06       7.37      20.29
C       4.78       7.41      21.81
C       5.53       7.85      25.20
C       6.54       7.72      20.02
C       7.20       6.66      22.23
C       6.09       7.69      22.60
C       6.65       9.07      22.15
C       6.87       9.11      20.62
C       5.82       7.72      24.02
C       6.82       7.66      18.60
C       7.08       7.50      17.42
C       5.06       8.21      26.51
