27

H       5.42       8.23       9.65
H       6.49      12.39       9.54
H       7.47       7.66       8.33
C       4.58      10.70      10.41
H       8.57      11.82       8.25
C       5.82      10.35       9.66
C       6.11       9.01       9.34
H      11.14       9.11       5.76
O       3.82       9.74      10.75
C       6.71      11.36       9.28
H       6.91       9.88       6.09
O       4.39      11.94      10.65
H      10.96       9.24       3.27
O       9.22       9.41       7.43
C       7.25       8.69       8.61
H       6.75       9.99       3.61
O       9.82       9.55       1.12
C       7.86      11.05       8.56
C       8.10       9.72       8.22
O       7.58       9.74       1.24
C       9.04       9.48       6.07
C      10.18       9.30       5.28
C       7.80       9.73       5.47
C      10.08       9.37       3.90
C       7.71       9.80       4.09
C       8.84       9.61       3.28
C       8.71       9.65       1.80
