16

O      -3.30       6.02       3.76
C      -2.79       8.73       2.60
C      -2.00       7.84       1.70
H      -4.34      10.08       6.30
H      -5.60       9.04       5.61
H      -5.57      10.80       5.22
C      -3.59       8.40       3.73
C      -3.82       7.08       4.28
H      -1.95       8.27       0.69
H      -0.97       7.72       2.08
N      -3.62      10.61       3.43
H      -2.45       6.84       1.66
N      -2.83      10.06       2.45
O      -4.55       6.89       5.33
C      -4.09       9.63       4.22
C      -4.96       9.91       5.40
