40

F      -5.16       1.51      12.79
F      -7.29       4.30       8.72
H     -12.27       1.57       8.59
H      -0.01       4.88      11.78
H     -11.64       5.33      10.66
H      -0.40       1.61       8.96
H      -6.43       6.41      10.86
H      -5.89      -0.51      10.28
H      -7.70       3.17      13.91
H      -4.57       2.74       7.72
C     -11.45       3.22       9.91
C      -0.83       3.25      10.44
C      -5.69       2.22      11.76
C      -6.75       3.61       9.76
C      -6.72       3.39      11.94
C      -5.72       2.44       9.58
C     -10.18       2.83      10.38
C      -2.22       3.24      10.60
C      -6.54       1.58      10.59
C      -5.91       4.26      10.90
C      -7.60       2.73      10.75
C      -4.84       3.10      10.76
C      -9.01       2.66      10.68
C      -3.44       3.22      10.70
C     -12.31       2.58       8.99
C       0.13       4.08      11.06
C     -12.00       4.51      10.05
C      -0.06       2.41       9.60
C      -5.61       5.71      11.12
C      -6.80       0.11      10.46
C      -7.34       3.93      13.17
C      -5.14       1.97       8.30
N     -13.27       3.45       8.61
N       1.36       3.75      10.61
N     -13.07       4.63       9.26
N       1.24       2.72       9.70
O      -4.54       6.09      11.55
O      -7.91      -0.38      10.58
O      -7.50       5.13      13.35
O      -5.27       0.83       7.88
