14

O       5.10       5.95       9.31
O       6.78       5.94       6.67
C       4.46       7.02       9.22
H       2.57      10.29       6.79
H       3.49       9.41       4.61
C       4.26       7.67       7.87
O       4.89       4.87       6.15
C       3.21       9.41       6.75
C       3.71       8.90       5.55
N       3.51       8.79       7.89
N       4.47       7.80       5.49
C       4.74       7.18       6.66
C       5.52       5.89       6.52
O       3.89       7.62      10.21
