18

N      18.68       8.73      29.50
C      13.30      11.40      30.55
O      13.40      11.27      31.82
H      18.42       8.50      30.45
H      19.46       8.22      29.07
S      16.49      10.00      26.44
O      19.91       8.13      27.08
O      12.34      11.96      29.91
H      13.77      11.32      27.72
C      17.74       9.21      28.64
C      14.53      10.88      28.37
C      17.85       9.24      27.24
C      14.40      10.86      29.75
C      15.74      10.28      27.96
C      16.51       9.82      29.04
C      18.93       8.69      26.44
S      15.75      10.12      30.56
O      18.82       8.80      25.17
