18

C      30.38      19.33      26.62
C      30.24      21.92      26.24
C      30.12      18.23      30.05
S      30.17      20.81      28.73
S      30.27      16.73      27.89
C      30.32      20.66      27.02
O      30.10      15.88      31.73
O      30.19      14.59      29.85
O      30.47      22.98      26.91
C      30.17      16.91      29.63
O      29.92      21.84      25.01
C      30.17      19.10      28.94
C      30.27      18.43      27.71
N      30.63      18.82      25.28
C      30.15      15.70      30.47
O      30.18      17.68      25.04
H      30.05      18.51      31.10
O      31.29      19.50      24.49
