18

O       8.23       6.16       8.89
O       8.21       8.44       8.78
O      13.74       4.04       7.99
O      15.15       4.35       9.66
H      10.76       9.41       8.91
C      16.33       7.28       8.81
C       8.79       7.30       8.83
C      13.97       6.16       8.82
C      11.12       8.38       8.87
C      14.85       7.24       8.87
C      10.27       7.30       8.82
C      12.47       7.96       8.85
C      12.61       6.56       8.78
S      14.00       8.75       8.90
S      11.09       5.76       8.74
N      14.33       4.75       8.82
O      16.86       8.42       9.02
O      16.93       6.20       8.53
