16

O       8.83      -1.15       3.17
O       8.91       1.14       3.19
C       9.13       1.13       8.91
C       9.00      -1.08       6.09
C       9.14       0.06       9.79
C       8.96      -0.01       5.21
C       9.06      -0.68       7.44
C       9.08       0.72       7.56
F       9.15       2.42       9.27
F       8.97      -2.37       5.73
S       9.09      -1.48       8.97
S       9.02       1.53       6.04
O       9.12      -1.08      11.82
C       9.16       0.07      11.26
O       9.23       1.20      11.83
C       8.89      -0.01       3.75
