30

S       7.97       1.21       7.99
H       7.90       1.99      10.72
O       7.82       3.10      12.81
H       6.21       5.33       6.23
O       6.62       5.03      12.83
H       5.50       1.09       6.68
H       4.86       5.04       8.28
H       5.80       5.12       3.78
H       5.29       5.38      10.71
H       5.28       0.88       4.23
O       5.53       1.64       1.90
O       4.73       3.75       1.75
O       7.22      -0.02       7.91
O       8.58       1.78       6.82
O       9.12       0.90       9.06
H       9.82       1.60       9.02
C       6.60       3.68      10.87
C       7.22       2.64      10.18
C       7.01       2.48       8.81
C       6.16       3.34       8.08
C       5.53       4.37       8.82
C       5.76       4.56      10.18
C       5.97       4.35       5.80
C       5.77       4.24       4.42
C       5.48       1.85       4.67
C       5.61       1.98       6.05
C       5.91       3.22       6.63
C       5.56       2.98       3.85
C       7.02       3.94      12.28
C       5.28       2.80       2.40
