27

C       7.57       8.51       7.81
C       8.10       8.14       9.15
C       8.09       9.06      10.21
C       8.58       6.84       9.36
C       8.56       8.69      11.46
C       9.04       6.45      10.61
C       9.03       7.38      11.66
C       9.34       5.83      13.44
C       8.13       5.15      13.31
C      10.39       5.30      14.19
C       7.96       3.92      13.95
C      10.21       4.08      14.84
C       9.00       3.38      14.73
C       8.82       2.10      15.47
H       7.70      10.06      10.03
H       8.58       6.13       8.53
H       8.58       9.39      12.30
H       9.42       5.44      10.78
H       7.32       5.58      12.72
H      11.32       5.85      14.27
H       7.02       3.38      13.88
H      11.01       3.65      15.45
O       7.00       9.65       7.69
O       7.73       7.67       6.86
O       9.54       7.09      12.91
O       7.73       1.45      15.30
O       9.78       1.76      16.25
