16

O      27.59      11.08      31.52
O      24.20       8.98      25.40
O      23.02       8.17      27.18
H      26.21      10.21      26.00
C      27.81      11.22      30.27
H      27.86      11.26      27.57
C      24.98       9.44      27.59
C      26.82      10.60      29.34
C      24.80       9.33      28.97
C      27.00      10.71      27.95
C      25.71       9.91      29.84
C      26.08      10.14      27.08
H      23.93       8.78      29.35
C      23.99       8.81      26.65
H      25.59       9.83      30.92
O      28.80      11.83      29.74
