32

N       8.40       7.49      18.58
N       6.07       8.07      18.59
N       8.41       7.51      19.90
N       6.07       8.04      19.92
H       6.12       9.73      16.38
H       8.42       6.08      16.32
O       6.21       7.68      11.62
O       8.40       8.30      11.62
H       6.27       9.83      24.64
H       8.46       6.14      24.74
O       6.32       8.42      26.88
O       8.50       7.74      26.88
C       7.24       7.83      17.96
C       6.72       8.95      22.71
C       7.89       6.84      22.77
C       6.73       9.00      24.10
C       7.97       6.92      24.16
C       7.38       8.00      24.82
C       7.28       7.86      22.00
C       7.30       7.99      12.18
C       7.40       8.06      26.32
C       6.69       9.00      14.43
C       7.90       6.91      14.39
C       6.62       8.94      15.82
C       7.92       6.89      15.78
C       7.26       7.89      16.50
C       7.30       7.97      13.69
C       7.25       7.81      20.53
I       5.94      10.72      13.46
I       8.73       5.27      13.37
I       5.88      10.63      21.73
I       8.60       5.04      21.91
