22

H       4.93       8.90       6.71
H       7.71       5.26       7.97
H       9.76       4.99       9.37
H      10.57       6.93      10.69
H       6.39      10.90       7.05
C       5.46       6.39       7.36
C       8.63      11.14       8.21
C       8.19       6.12       8.44
C       9.31       5.97       9.22
C       9.80       7.09       9.93
C       9.28       8.35       9.74
C       8.29       8.60       8.72
C       7.64       7.41       8.21
C       6.39       7.56       7.52
C       5.90       8.80       7.19
C       6.69       9.93       7.44
C       7.86       9.87       8.19
I       9.73       9.71      11.30
O       5.73       5.45       6.53
O       4.43       6.47       8.09
O       8.07      12.16       7.68
O       9.83      11.18       8.69
