28

C      10.08      13.41      13.80
H      11.05      15.34      13.69
C      10.14      14.78      13.90
C      10.02      18.88      14.45
C       8.99      15.50      14.30
C       8.85      19.61      14.74
C       7.78      14.81      14.54
C      11.22      19.55      14.17
C       7.74      13.42      14.44
C      11.25      20.94      14.11
H       7.94      19.08      14.99
H      10.96      12.83      13.51
H       8.00      21.59      14.86
H      12.11      18.95      13.97
H       6.91      15.39      14.83
H      12.17      21.47      13.86
H       6.82      12.87      14.64
C      10.07      23.16      14.17
N      10.07      17.47      14.38
N       8.94      16.90      14.44
C      10.08      21.67      14.33
O      11.19      23.75      14.04
C       8.88      11.21      14.03
O      10.01      10.64      13.87
O       7.76      10.62      14.15
O       8.92      23.72      14.17
C       8.89      12.71      14.08
C       8.89      21.00      14.67
