42

H       9.98       3.97      22.51
H      12.28       0.63      21.10
C       9.18       2.94      20.76
C      10.75       1.30      19.72
H       8.59       3.85      20.63
C      11.38       3.81      19.92
C      12.25       3.23      21.08
H      12.99       2.54      20.64
C      12.13       1.92      24.48
H       8.51       2.08      20.68
H      11.62       1.22      19.06
C      10.22       2.78      19.63
C       9.90       2.95      22.12
C      11.32       2.34      21.97
H      14.40       3.28      18.73
S      12.44       4.02      18.32
H      10.42       5.60      19.50
H      11.61       5.69      20.60
N       9.67       0.38      19.34
N      10.45      -0.06      21.83
H      13.61       4.75      21.23
H      12.43       4.82      22.40
N      10.86       5.09      20.27
N      13.02       4.20      21.85
H      10.12      -0.51      19.13
H       9.27       0.71      18.46
H       9.34       2.36      22.86
H      10.39       0.09      22.84
H       9.51      -0.07      21.42
O       8.21       2.15      15.25
C      11.84       2.13      23.31
O      13.35       2.42      26.40
C       9.65       2.97      18.30
O      12.43       2.83      17.50
O      12.09       5.30      17.77
O      13.94       4.17      18.91
C       9.28       3.01      17.14
C      12.59       1.58      25.80
O      12.23       0.44      26.26
O       9.29       4.14      15.11
C       8.92       3.10      15.75
C      11.24       0.99      21.19
