26

H       6.66      14.09       9.31
H       2.41      15.91       8.15
H       6.44      18.49       9.42
H       6.56      16.04       9.40
H       2.64      11.51       8.04
H       2.51      13.96       8.06
C       4.39      20.09       8.83
C       4.68       9.91       8.63
C       4.69      11.40       8.63
C       4.38      18.60       8.84
C       5.80      12.19       8.97
C       5.75      13.58       9.01
C       3.27      17.81       8.50
C       3.32      16.43       8.45
C       5.56      17.90       9.16
C       5.62      16.52       9.13
C       3.51      12.10       8.30
C       3.45      13.49       8.33
C       4.57      14.26       8.70
C       4.51      15.74       8.77
O       5.51      20.66       9.01
O       5.79       9.31       8.82
O       3.56       9.35       8.46
O       3.28      20.69       8.64
F       7.00      11.62       9.30
F       2.08      18.38       8.17
