27

C       4.26       0.76      26.09
C       3.07       2.34      24.70
H       4.55       0.43      27.08
C       3.53       1.67      23.57
H       2.44       3.23      24.61
O       3.62       2.29      28.29
C       4.70       0.08      24.95
O       2.10       3.49      27.09
H       3.27       2.04      22.58
C       4.34       0.52      23.66
C       4.72      -0.21      22.44
H       6.74      -0.69      23.05
O       4.85      -2.34      17.90
C       5.99      -0.81      22.27
H       2.79       0.09      21.51
O       6.55      -3.38      19.01
H       7.25      -2.03      21.02
C       3.78      -0.34      21.39
O       5.47      -1.05      25.08
C       6.28      -1.55      21.13
H       3.36      -1.16      19.44
C       4.09      -1.05      20.24
H       5.54      -1.27      26.02
C       5.33      -1.68      20.11
C       5.61      -2.53      18.91
C       3.02       2.61      27.21
C       3.44       1.89      25.97
