20

C      12.84       4.36      19.25
C      15.03       5.85      19.98
C      13.11       2.48      20.20
C      12.00       3.09      19.25
H      15.88       6.48      20.25
H      13.66       1.62      19.78
H      12.77       2.21      21.21
H      11.00       3.20      19.70
H      11.89       2.61      18.27
O      10.89       5.38      17.55
O      11.95       7.40      17.43
C      11.84       6.20      17.84
C      16.00       3.98      21.35
O      16.99       4.73      21.64
O      15.83       2.77      21.74
F      14.24       7.66      18.73
C      14.94       4.54      20.47
C      12.90       5.66      18.74
C      13.81       3.81      20.08
C      14.05       6.38      19.15
