16

C      26.96      13.85      14.22
S      28.49      15.82      13.03
S      25.48      18.11      11.22
F      24.61      15.39      12.98
C      27.00      20.09      10.04
O      25.86      20.47       9.59
O      28.13      20.66       9.86
O      28.11      13.35      14.49
F      29.36      18.56      11.30
C      25.89      15.75      12.86
C      28.07      18.19      11.42
C      26.97      15.07      13.41
C      27.00      18.87      10.85
C      27.68      17.05      12.15
C      26.28      16.89      12.12
O      25.83      13.39      14.59
