15

N      22.58      14.72       3.66
C      24.66      14.58       2.38
C      23.62      13.95       3.29
C      23.79      12.62       3.69
C      22.82      12.05       4.52
C      21.73      12.84       4.91
C      21.66      14.16       4.46
H      24.66      12.06       3.36
H      22.89      11.02       4.86
H      20.83      14.80       4.76
C      20.66      12.26       5.78
O      25.66      13.84       2.10
O      24.45      15.76       1.98
O      19.69      13.02       6.10
O      20.82      11.03       6.12
