20

H      25.66       8.69      11.76
H      24.78       9.44      10.40
H      23.09      10.40      12.02
H      23.96       9.65      13.38
Cl      20.04       5.34      12.20
Cl      22.06       4.21      10.27
C      20.72       8.20      13.49
C      24.70       5.95       9.75
O      19.75       7.53      13.96
O      21.01       9.42      13.79
O      24.77       4.72       9.44
O      25.51       6.87       9.39
C      23.60       6.43      10.66
C      21.65       7.55      12.52
C      23.75       7.68      11.26
C      21.46       6.27      11.90
C      22.82       8.21      12.15
C      22.41       5.73      10.99
C      24.66       8.89      11.34
C      23.60       9.49      12.35
