28

H       1.86       6.98       9.30
H       1.84       6.98      11.79
H       6.02       6.98       9.22
H       1.91       6.98      18.74
H       6.06       6.97      18.66
H       6.08       6.98      16.17
H       7.15       6.10      11.53
H       6.51       6.99      12.95
H       7.15       7.86      11.53
H       0.78       6.10      16.43
H       1.41       6.98      15.02
H       0.78       7.86      16.43
C       2.79       6.98       9.86
C       2.79       6.98      11.25
C       4.01       6.98      11.96
C       5.21       6.98      11.22
C       5.11       6.98       9.82
C       3.99       6.98      13.37
C       3.93       6.98      14.59
C       3.92       6.98      16.00
C       2.71       6.98      16.74
C       2.82       6.98      18.14
C       5.13       6.97      18.10
C       5.14       6.98      16.71
C       6.58       6.98      11.85
C       1.35       6.98      16.11
N       3.94       6.98       9.16
N       3.98       6.98      18.80
