31

H       5.75       3.01      12.54
H       9.60       1.74      11.11
H      10.62      -0.38      11.96
H      10.54      -2.32      13.49
H       9.42      -3.56      15.34
H       5.58      -2.29      16.79
H       4.63       1.76      14.40
H       3.66       0.36      15.96
C       7.69       3.62      10.79
C       6.58       2.30      12.59
C       7.68       2.47      11.75
C       8.75       1.58      11.77
C       8.72       0.46      12.62
C       7.61       0.29      13.51
C       6.54       1.23      13.50
C       9.77      -0.52      12.64
C       9.73      -1.59      13.48
C       8.64      -1.78      14.39
C       7.57      -0.83      14.39
C       6.47      -1.01      15.28
C       5.41      -0.03      15.27
C       5.45       1.04      14.41
C       8.60      -2.85      15.30
C       7.50      -3.03      16.14
C       6.43      -2.13      16.13
C       7.48      -4.18      17.09
O       8.82       4.01      10.36
O       6.56       4.11      10.48
O       8.61      -4.67      17.43
O       6.34      -4.58      17.50
O       4.39      -0.26      16.15
