28

H       2.39       1.89       8.97
H      -2.37      -4.52      15.53
H      -1.91       2.21       9.01
H       1.92      -4.85      15.50
H      -2.03       0.42      10.76
H       2.04      -3.06      13.75
C      -0.27      -5.84      16.68
C       0.29       3.20       7.83
C       1.33       0.58      10.32
C      -1.32      -3.22      14.18
C       1.42       1.57       9.36
C      -1.41      -4.21      15.14
C       0.24       2.16       8.89
C      -0.22      -4.79      15.62
C      -1.00       1.74       9.40
C       1.02      -4.38      15.11
C      -1.07       0.75      10.36
C       1.08      -3.39      14.14
C       0.10       0.14      10.86
C      -0.09      -2.77      13.65
C       0.05      -0.88      11.83
C      -0.03      -1.76      12.68
O       0.85      -6.26      17.11
O      -0.84       3.62       7.40
O      -1.42      -6.21      17.09
O       1.44       3.57       7.42
F       2.47      -0.00      10.78
F      -2.46      -2.63      13.72
