16

C      15.66      12.90       6.14
C      21.27      10.17       2.00
C      16.87      11.09       4.81
O      14.70      12.10       6.40
C      16.76      12.37       5.33
H      16.11      10.33       4.96
C      18.86      12.12       4.06
C      18.07      10.95       4.08
O      15.77      14.12       6.51
C      20.06      11.98       3.34
H      20.82      12.74       3.18
C      20.17      10.70       2.81
O      21.17       8.94       1.64
O      22.23      10.98       1.73
S      18.11      13.40       4.94
S      18.82       9.67       3.20
