14

C       2.52      12.70       1.94
O       3.60       8.51       7.09
H       0.55      11.39       3.19
H       0.54      10.36       5.48
O       1.37       8.89       7.33
C       2.48       8.98       6.71
O       3.64      13.15       1.56
C       1.48      11.26       3.73
C       2.53      11.94       3.22
C       1.47      10.45       4.93
O       1.41      12.80       1.33
C       2.50       9.74       5.43
F       3.72      12.00       3.86
F       3.68       9.63       4.77
