32

H       6.89       9.67      12.57
H       2.74       9.44      11.49
H       5.70       9.52      13.85
H       3.20       9.70      13.18
H       5.20      11.81      13.82
H       3.02      12.00      12.73
H       6.71      11.99      12.93
H       2.86      11.72      11.01
H       6.19       9.32      10.11
H       4.49       9.55       9.72
H       7.60      11.24      11.04
H       7.38      11.23       9.28
H       7.22      12.75      10.18
H       5.02      13.04       9.00
H       5.20      11.46       8.21
H       3.73      11.82       9.13
C       4.92       7.87      11.91
C       4.93      13.51      11.66
C       5.88       9.96      12.86
C       3.48       9.94      12.14
C       5.73      11.50      12.90
C       3.47      11.47      11.88
C       5.28       9.84      10.42
C       4.88       9.38      11.84
C       4.91      11.99      11.69
C       5.51      11.39      10.36
C       7.02      11.67      10.22
C       4.82      11.96       9.11
O       6.04       7.31      11.67
O       3.85       7.25      12.21
O       6.04      14.08      11.89
O       3.83      14.12      11.41
