20

C       3.74      11.43       4.00
C       4.84      10.89       3.32
C       5.59      11.70       2.47
H      -0.22      10.24       6.19
H       1.06      11.69       4.62
H       4.54       9.26       5.48
H       3.08       7.88       6.97
H       4.03      14.58       2.71
H       2.61      13.27       4.28
H       5.11       9.84       3.42
H       6.46      11.33       1.94
N       1.39       9.01       6.62
N       5.30      13.00       2.28
C       0.83      10.06       5.99
C       1.56      10.87       5.13
C       2.92      10.60       4.91
C       3.48       9.51       5.59
C       2.69       8.74       6.43
C       4.24      13.53       2.91
C       3.44      12.78       3.77
