36

H       5.13       6.64      16.90
H       1.57      -1.38       8.87
H       5.26       4.77      15.27
H       1.44       0.49      10.50
H       1.78       0.71      13.00
H       4.93       4.54      12.76
C       3.69      -2.76       8.04
C       3.01       8.01      17.72
C       4.24       6.29      16.38
C       2.47      -1.04       9.38
C       4.31       5.25      15.47
C       2.40       0.00      10.29
C       3.15       4.80      14.80
C       3.55       0.46      10.96
C       1.95       5.45      15.08
C       4.75      -0.20      10.68
C       1.88       6.50      16.01
C       4.82      -1.24       9.75
C       3.02       6.93      16.69
C       3.68      -1.67       9.07
C       2.37       2.59      13.84
C       4.33       2.66      11.93
C       2.47       1.55      12.93
C       4.24       3.71      12.83
C       3.47       1.56      11.94
C       3.24       3.70      13.82
O       2.56      -3.17       7.65
O       4.15       8.43      18.11
O       4.82      -3.15       7.62
O       1.88       8.41      18.14
F       0.82       5.13      14.41
F       5.88       0.13      11.35
F       0.67       7.07      16.18
F       6.03      -1.82       9.58
F       1.42       2.50      14.81
F       5.28       2.75      10.95
