17

N       1.65       5.71       0.00
N      -1.20       5.47      -0.05
H      -2.52       3.69      -1.49
C       0.88       5.97       1.05
C      -0.42       5.15      -1.13
C      -0.51       5.85       1.02
C       0.97       5.29      -1.10
C       0.91       6.46       2.48
C      -0.67       6.32       2.45
H       1.57       5.06      -1.98
H       1.43       5.79       3.18
H       1.30       7.48       2.60
H      -1.24       7.25       2.56
H      -1.09       5.55       3.11
O      -2.02       3.76      -2.38
O      -0.50       4.95      -3.49
C      -1.02       4.63      -2.42
