16

H      10.42       5.73       9.43
H       6.17       6.42       9.27
O       7.09       6.17      14.09
H      10.32       5.85      11.94
O       7.20       5.79       7.14
O       9.46       5.93       7.15
O       9.34       6.43      14.08
F       5.87       6.69      11.80
C       8.21       6.28      13.51
C       8.33       5.92       7.71
C       8.22       6.22      12.02
C       8.30       6.05       9.20
C       7.07       6.39      11.23
C       9.48       5.91       9.95
C       7.09       6.30       9.85
C       9.42       5.98      11.34
