21

C       5.44      10.76      18.10
C       4.40       9.88      17.79
C       6.29      13.08      18.60
N       0.72       7.70      17.51
N       2.00       9.50      17.48
H       2.62       7.69      18.51
H       4.60       8.83      17.58
O       6.09      14.32      18.38
C       1.88       8.21      17.91
H      -0.91       8.52      16.37
O       7.40      12.61      19.04
C       0.06       8.69      16.81
H       0.70      10.79      16.34
H       1.77      12.07      18.04
C       0.84       9.82      16.78
H       3.66      13.64      18.50
C       3.08      10.37      17.76
H       6.46      10.40      18.15
C       2.81      11.72      18.02
C       3.86      12.59      18.28
C       5.18      12.12      18.32
