25

C       7.19       2.10      20.10
C       6.82       2.89      21.19
H       9.29      -1.01      16.45
C       6.03       2.36      22.22
H       9.06       0.52      18.44
C       5.66       1.01      22.16
H       4.99      -0.89      18.83
C       6.01       0.22      21.07
H       7.77       2.53      19.28
C       5.55       3.22      23.35
N       6.09      -1.69      17.28
H       7.12       3.94      21.24
H       5.07       0.59      22.98
O       6.35      -3.51      15.36
O       8.49      -2.91      14.98
H       5.70      -0.82      21.04
C       7.38      -2.80      15.56
O       5.84       4.46      23.33
C       7.27      -1.74      16.64
O       4.85       2.64      24.25
C       8.35      -0.93      17.01
C       8.22      -0.08      18.10
C       7.00      -0.06      18.81
C       5.97      -0.87      18.33
C       6.76       0.76      20.01
