9

C       0.57      11.69       4.88
C       1.87      12.43       4.51
C       0.65      11.16       6.33
H       0.40      10.87       4.17
H      -0.19      10.50       6.63
O       1.49      11.53       7.13
O      -0.54      12.58       4.93
O       1.80      13.72       4.45
O       2.89      11.73       4.34
