30

C       4.28       1.81       6.47
C       4.49       2.51       7.67
C       4.56       1.85       8.89
C       4.44       0.46       8.96
C       4.25      -0.26       7.78
C       4.19       0.40       6.55
N       4.16       2.50       5.25
H       6.88       3.26       3.88
H       6.69       2.30       5.36
O       7.07       4.46       6.92
O       8.49       4.67       5.15
O       2.58       1.87       0.73
O       1.57       0.94       2.55
H       4.91       4.34       5.90
H       4.70       4.20       4.16
H       3.10       0.97       4.33
H       4.75       1.14       3.69
H       4.59       3.60       7.66
H       4.71       2.43       9.80
H       4.49      -0.06       9.92
H       4.17      -1.34       7.80
H       4.07      -0.20       5.64
H       2.62       3.31       3.35
H       4.05       3.06       2.31
C       7.44       4.22       5.72
C       6.54       3.30       4.92
C       5.03       3.65       5.05
C       3.87       1.71       4.06
C       3.29       2.55       2.91
C       2.42       1.71       1.99
