30

C       9.95       9.95      24.46
C       9.08       9.08      25.20
C      10.83      10.83      29.41
C      10.83      10.83      26.59
C      10.83      10.83      22.36
C      10.83      10.83      25.17
H       9.31       9.31      29.28
H       8.42       8.42      27.12
H      12.35      12.34      29.28
H      13.24      13.24      27.12
H      12.34      12.35      22.49
H      13.24      13.24      24.65
H       9.31       9.31      22.49
H       8.42       8.42      24.65
O      10.02      10.02      31.48
O      11.63      11.63      31.48
C      10.83      10.83      30.90
C      10.83      10.83      20.87
O      10.02      10.02      20.29
O      11.63      11.63      20.29
C       9.97       9.97      28.71
C       9.95       9.95      27.31
C       9.08       9.08      26.57
C      11.69      11.69      28.71
C      11.70      11.70      27.31
C      12.57      12.57      26.57
C      11.69      11.69      23.06
C      11.70      11.70      24.46
C      12.57      12.57      25.20
C       9.97       9.97      23.06
