18

C      11.78       2.84      18.37
C      11.78       5.36      14.87
C      11.78       5.92      16.17
C      11.78       3.11      15.83
N      11.78       1.76      15.67
C      11.78       5.08      17.27
C      11.78       3.68      17.14
C      11.78       6.25      13.67
O      11.78       7.51      13.86
O      11.78       5.75      12.49
O      11.78       3.43      19.50
O      11.78       1.55      18.28
C      11.78       3.98      14.71
H      11.78       3.55      13.71
H      11.78       1.23      16.54
H      11.78       1.36      14.74
H      11.78       5.48      18.28
H      11.78       7.01      16.27
