16

C      18.53       8.48      28.09
C      18.54       9.13      26.84
S      18.52       6.77      27.94
S      18.54      10.84      27.00
C      18.52      11.97      29.50
O      18.52      13.04      28.81
O      18.57       5.74      24.16
O      18.52      11.87      30.77
C      18.53       5.65      25.43
O      18.48       4.57      26.12
Br      18.56       8.84      23.99
Br      18.52       8.78      30.95
C      18.55       8.22      25.76
C      18.52       9.39      29.17
C      18.54       6.90      26.20
C      18.53      10.71      28.74
