16

C       1.98      -5.04      10.77
C       1.98      -5.03      18.31
C       2.02      -6.13      13.10
C       2.02      -3.94      15.98
C       1.99      -5.04      12.26
C       1.99      -5.04      16.83
C       1.97      -4.34      14.62
C       1.97      -5.73      14.46
S       1.91      -3.52      13.11
S       1.91      -6.55      15.98
Cl       2.05      -7.77      12.60
Cl       2.05      -2.31      16.48
O       1.05      -4.39      10.19
O       2.91      -5.69      10.19
O       1.05      -5.68      18.89
O       2.91      -4.39      18.90
