36

H       0.90      19.87       0.52
H       3.04      23.60       0.52
H       3.04      19.87      -8.88
H       0.90      23.60      -8.88
H       3.24      23.72      -3.13
H       3.77      24.44      -1.69
H       0.70      19.75      -3.13
H       0.17      19.03      -1.69
H       0.70      23.73      -5.24
H       0.17      24.44      -6.68
H       3.24      19.75      -5.24
H       3.77      19.03      -6.68
C       1.97      21.73     -10.49
C       1.97      21.74       2.12
C       1.97      21.74       0.63
C       1.38      20.67      -0.05
C       1.40      20.65      -1.45
C       1.97      21.74      -2.16
C       2.54      22.83      -1.45
C       2.57      22.80      -0.05
C       1.97      21.74      -3.57
C       1.97      21.74      -4.80
C       1.97      21.74      -6.21
C       2.54      20.64      -6.92
C       2.56      20.67      -8.32
C       1.97      21.74      -9.00
C       1.38      22.80      -8.32
C       1.40      22.83      -6.92
N       3.03      23.92      -2.15
N       0.91      19.55      -2.15
N       0.91      23.92      -6.22
N       3.03      19.55      -6.21
O       2.90      21.09     -11.08
O       1.04      22.38     -11.08
O       2.90      22.39       2.71
O       1.04      21.09       2.71
