13

O      14.56      10.33      13.57
O      13.49      12.16      14.39
H      11.32      10.37      10.39
H      10.67       9.24      11.63
O      13.16       7.91      10.23
O      11.04       7.91       9.41
C      13.58      11.16      13.65
C      12.37      10.91      12.77
C      11.95       8.34      10.15
C      11.56       9.51      11.04
H      12.15      11.82      12.17
H      11.50      10.69      13.41
O      12.65       9.82      11.90
