34

C      -5.36       9.82       9.36
C      -5.06      11.33       9.45
C      -4.65      10.02       7.02
C      -7.14      10.05       7.60
C      -5.76       9.42       7.90
C      -5.60      12.02       8.19
C      -4.79      11.54       6.97
C      -7.10      11.57       8.02
C      -7.64       9.80       6.17
C      -7.94      12.47       7.13
N      -4.55       9.45       5.60
O      -4.58       7.35       7.94
O      -6.84       7.26       7.90
O      -5.58      14.11       9.42
O      -5.43      14.16       7.17
H      -4.50       9.23       9.69
H      -6.21       9.55      10.01
H      -5.52      11.78      10.34
H      -3.98      11.51       9.52
H      -3.67       9.72       7.44
H      -3.80      12.02       6.95
O      -3.85      10.09       4.81
H      -7.53      11.64       9.04
O      -5.12       8.38       5.33
H      -5.29      11.84       6.04
H      -7.84       9.54       8.27
H      -7.05      10.33       5.41
H      -7.60       8.73       5.94
H      -8.68      10.13       6.07
H      -7.98      13.49       7.54
H      -7.54      12.56       6.11
H      -8.97      12.10       7.05
C      -5.72       7.89       7.88
C      -5.53      13.54       8.27
