20

S       7.84       2.89      19.41
S       7.02       6.56      21.21
N       9.81       6.41      19.32
N       4.86       3.17      20.93
C      10.26       3.36      18.23
O       9.99       2.25      17.65
O      11.38       3.96      18.25
C       4.62       6.08      22.44
O       4.62       7.35      22.54
O       3.87       5.26      23.04
C       8.98       5.23      19.54
C       5.83       4.26      20.98
C       9.14       3.96      18.99
C       5.67       5.52      21.55
C       7.06       4.13      20.30
C       7.80       5.32      20.32
O       9.80       7.23      20.25
O      10.40       6.54      18.25
O       5.36       2.04      20.73
O       3.66       3.42      21.01
