14

H       9.51       7.75      11.47
F       7.88       4.59      14.24
F      11.38       3.66      11.09
F       7.79       7.09      13.38
F      11.29       6.21      10.29
C       9.67       2.59      13.15
C       9.60       4.00      12.67
C       8.72       4.93      13.24
C      10.46       4.47      11.65
C       8.67       6.24      12.79
C      10.42       5.80      11.23
C       9.52       6.70      11.79
O       9.38       2.38      14.38
O      10.03       1.68      12.33
