14

O       3.23       8.45      11.32
O       7.83       4.45       5.61
C       4.38       8.13      10.86
C       6.68       4.77       6.08
H       3.39       6.97       9.28
C       4.37       7.27       9.66
C       6.69       5.64       7.28
H       7.67       5.93       7.66
H       6.47       7.20       9.48
C       5.51       6.87       9.05
C       5.54       6.03       7.88
H       4.59       5.70       7.46
O       5.55       4.42       5.60
O       5.51       8.48      11.33
