22

H       5.91       9.98       8.45
H       8.10      15.67       4.70
H       7.03       9.81       2.84
H       6.99      15.84      10.32
C       7.29      12.58       5.96
C       7.76      10.50       4.44
C       6.25      15.15       8.71
C       7.81      13.56       5.06
C       6.20      12.09       8.09
C       7.74      14.90       5.38
C       6.27      10.75       7.77
C       6.74      14.47       7.45
C       7.27      11.18       5.71
C       6.72      13.07       7.20
Br       8.66      13.18       3.42
Br       5.35      12.47       9.73
N       6.79      10.31       6.60
N       7.22      15.34       6.55
O       6.77      10.47       3.53
O       5.16      15.67       8.81
O       7.24      15.18       9.63
O       8.85       9.98       4.35
