16

C      18.53       9.80       3.89
C      18.42      13.40       4.23
C      18.47       9.66       5.28
C      18.48      13.54       2.84
C      18.44      12.04       4.61
C      18.51      11.17       3.51
C      18.47       8.45       6.10
S      18.39      11.20       6.11
S      18.56      12.01       2.01
O      18.55      14.56       0.75
O      18.55       7.33       5.50
O      18.42      15.88       2.62
O      18.39       8.64       7.37
C      18.48      14.76       2.01
Br      18.62       8.44       2.61
Br      18.32      14.76       5.51
