78

H      30.67      28.94      26.04
H      27.26      31.35      24.87
H      32.81      28.51       9.34
H      36.40      30.94       9.30
H      34.54      41.02      24.77
H      37.60      37.96      24.98
H      28.62      40.87       9.96
H      26.26      37.25      10.22
H      34.31      35.53      18.12
H      30.45      33.65      18.40
H      34.13      33.73      16.22
H      30.25      35.52      16.74
H      32.67      34.57      21.98
H      31.73      34.70      12.78
H      28.72      31.98      22.78
H      31.77      32.57      22.55
H      31.25      31.02      24.26
H      29.42      33.26      20.67
H      35.40      31.92      11.63
H      32.44      32.58      12.34
H      32.64      30.85      10.81
H      35.03      33.40      13.79
H      36.47      37.17      22.55
H      33.41      36.88      22.08
H      33.94      38.69      23.43
H      35.73      35.69      20.44
H      27.65      36.93      12.55
H      30.76      36.92      12.65
H      29.86      38.66      11.28
H      28.71      35.66      14.57
C      29.71      29.42      25.92
C      29.32      30.43      25.01
C      27.96      30.64      25.30
C      33.79      28.96       9.17
C      34.36      30.09       9.78
C      35.63      30.19       9.16
C      35.40      40.40      24.99
C      35.78      39.17      24.41
C      36.98      38.85      25.08
C      27.89      40.07       9.87
C      27.84      38.83      10.53
C      26.67      38.23      10.02
C      33.52      35.09      18.73
C      32.37      34.59      18.10
C      31.33      34.07      18.89
C      31.45      33.99      20.29
C      32.58      34.56      20.89
C      33.61      35.13      20.13
C      32.21      34.64      16.63
C      33.23      34.16      15.79
C      33.04      34.12      14.40
C      31.87      34.69      13.86
C      30.86      35.21      14.69
C      31.02      35.13      16.08
C      30.18      31.12      24.08
C      29.79      31.89      23.03
C      30.72      32.61      22.22
C      30.44      33.28      21.07
C      33.73      30.94      10.75
C      34.31      31.83      11.60
C      33.53      32.63      12.49
C      33.97      33.39      13.53
C      35.00      38.42      23.45
C      35.41      37.43      22.62
C      34.46      36.70      21.83
C      34.71      35.84      20.81
C      28.84      38.27      11.41
C      28.66      37.29      12.33
C      29.76      36.68      13.03
C      29.68      35.85      14.10
N      27.57      29.82      26.30
N      28.65      29.06      26.68
N      35.78      29.20       8.26
N      34.64      28.43       8.27
N      37.27      39.80      25.99
N      36.30      40.77      25.93
N      26.08      39.05       9.13
N      26.84      40.20       9.04
