26

H       0.59      10.86       8.67
H      -3.57      17.83       8.77
H       0.72      17.74       8.77
H       0.66      15.31       8.74
H      -3.71      10.95       8.67
H      -3.65      13.38       8.69
C      -1.40      19.46       8.75
C      -1.59       9.23       8.69
C      -1.57      10.72       8.67
C      -1.42      17.97       8.76
C      -0.36      11.41       8.68
C      -0.35      12.79       8.69
C      -2.63      17.28       8.76
C      -2.64      15.90       8.74
C      -0.24      17.22       8.76
C      -0.28      15.83       8.74
C      -2.75      11.47       8.68
C      -2.71      12.86       8.69
C      -1.50      13.60       8.71
C      -1.48      15.09       8.73
O      -0.26      20.03       8.74
O      -0.45       8.65       8.71
O      -2.72       8.66       8.70
O      -2.54      20.04       8.73
F       0.91      13.34       8.70
F      -3.89      15.34       8.74
