54

C      12.84      15.84       8.81
C      12.95      10.96       8.13
C      13.58      14.76       8.36
H      13.20      16.48       9.61
C      11.66      10.62       7.70
C      13.05      13.97       7.33
H      14.56      14.52       8.78
N      15.59      11.96       5.89
C      11.80      14.22       6.77
H      11.41      13.58       5.98
N      14.95      11.00       6.65
C      11.06      15.31       7.24
H      10.08      15.54       6.83
N      13.88      12.92       6.82
C      15.35      14.41       5.42
H      16.18      14.25       4.72
N       7.75       8.45       7.34
C      14.96      13.12       6.01
H      15.65      15.12       6.20
N       9.13       8.51       7.47
C      13.91      11.59       7.20
H      14.51      14.86       4.86
N       8.26      10.26       8.49
C       8.11      15.02      11.66
H       7.20      12.60      12.31
C       8.13      13.79      10.79
O      11.46      18.02       9.64
H       7.24      10.49      10.93
C       7.60      12.60      11.30
O       9.63      17.48       8.38
H       9.07      12.66       7.69
C       7.62      11.43      10.53
O       8.69      16.07      11.17
H       9.03      14.76       9.10
C       8.17      11.47       9.24
O       7.54      14.98      12.77
H       5.22       9.24       7.36
C       8.67      12.66       8.71
H       5.70      10.93       7.68
C       8.64      13.82       9.48
H       5.40       9.81       9.04
C       5.81       9.89       8.02
H      10.43       9.36      10.63
C       7.24       9.50       7.95
H      12.73       9.97      11.38
C       9.42       9.60       8.15
H      14.36      10.93       9.78
C      10.76      10.03       8.60
H      11.33      10.82       6.68
C      11.14       9.81       9.93
C      10.82      17.30       8.79
C      12.43      10.15      10.35
C      11.58      16.12       8.26
C      13.34      10.71       9.45
