10

C      11.94       0.48       3.89
O      14.86       0.30       2.22
H      11.63       1.53       3.88
C      12.47       0.06       2.52
H      11.71       0.32       1.76
O      13.62       2.13       2.02
H      11.08      -0.16       4.15
C      13.73       0.88       2.22
H      12.72       0.33       4.66
O      12.78      -1.32       2.46
