34

N       2.85       4.76       4.49
N       3.33      -0.81      -1.54
H       3.79      -0.10      -2.12
H       3.71       0.10       2.12
N       4.17       0.81       1.54
O       2.87      -1.40       0.64
H       6.40      -4.12      -3.58
O       4.63       1.40      -0.64
H       1.10       4.12       3.58
H       5.29      -2.41      -2.16
H       2.21       2.41       2.16
H       1.55      -3.55      -4.02
H       5.96       3.55       4.02
H       2.81      -5.24      -5.34
H       4.69       5.24       5.34
H       1.78      -1.38      -2.81
H       5.72       1.38       2.81
H       1.99      -2.35      -1.34
H       5.52       2.35       1.34
C       5.32      -3.98      -3.62
C       2.18       3.98       3.62
C       4.70      -3.02      -2.84
C       2.81       3.02       2.84
C       3.31      -2.85      -2.95
C       4.19       2.85       2.95
C       2.62      -3.67      -3.86
C       4.88       3.67       3.86
C       3.31      -4.60      -4.60
C       4.19       4.60       4.60
C       2.54      -1.84      -2.15
C       4.97       1.84       2.15
C       3.38      -0.64      -0.20
C       4.13       0.64       0.20
N       4.65      -4.76      -4.49
