42

O       1.31       0.04      21.16
O      -1.16      -0.44      22.13
H      -7.94      -1.16      36.03
H      -6.52      -1.15      33.99
H      -5.39       0.39      32.71
H      -1.84      -0.91      32.52
H      -0.54      -1.02      30.38
H      -3.89       0.62      28.23
H      -5.19       0.73      30.38
H      -0.33      -0.69      28.06
H      -2.46      -0.42      24.35
H       2.30       0.90      24.83
H       0.83       0.86      26.84
H      -3.17       0.16      36.38
C      -5.01      -0.10      37.47
C      -6.39      -0.48      37.35
C      -6.90      -0.85      36.09
C      -6.12      -0.83      34.95
C      -4.76      -0.44      35.05
C      -4.37      -0.03      32.81
C      -3.59      -0.09      31.58
C      -2.27      -0.58      31.57
C      -1.56      -0.64      30.39
C      -2.14      -0.21      29.18
C      -3.46       0.29      29.18
C      -4.17       0.34      30.37
C      -1.34      -0.26      27.96
C      -0.91       0.17      25.73
C      -1.41      -0.14      24.46
C      -0.60      -0.13      23.31
C       0.78       0.25      23.47
C       1.26       0.59      24.75
C       0.45       0.55      25.86
C       1.72       0.37      22.34
C      -4.23      -0.11      36.30
C      -7.31      -0.56      38.49
N      -3.91      -0.43      33.94
N      -1.78       0.15      26.82
O      -8.50      -1.00      38.36
O      -6.89      -0.16      39.65
O      -4.44       0.26      38.63
O       2.90       0.80      22.52
