14

C       1.77       8.89       7.36
C       0.88       9.88       7.67
H       1.26      10.86       7.98
C       3.16       9.08       7.44
C      -0.51       9.69       7.62
H       1.40       7.92       7.04
O      -3.84      10.43       7.67
C      -3.15       9.35       7.60
C       5.80       9.37       7.63
O       6.24      10.51       8.00
O       6.48       8.34       7.32
O      -3.59       8.16       7.53
C       4.37       9.22       7.53
C      -1.72       9.53       7.60
