44

C       7.61       5.78      16.28
C       8.18       6.31      15.10
C       7.63       6.09      13.85
C       8.82       8.04      19.52
H       6.79       6.30      10.85
C       7.66       7.24      19.50
C       9.04       8.91      20.57
C       8.13       9.02      21.64
C       6.99       8.20      21.63
C       6.76       7.31      20.58
C       4.28       4.87      12.41
C       5.62       5.31      12.51
H       9.96      11.39      21.97
H       6.96       9.44      24.41
C       9.37       7.37      12.81
C       6.89       3.57      18.16
N       4.78       5.76      10.46
N       9.18      11.72      23.90
N       8.22      11.11      24.68
N       8.05       6.44      17.43
N       7.27       6.40      18.44
N       3.80       5.16      11.19
O       8.15       6.64      12.70
O       6.03       4.05      17.12
H       9.95       9.52      20.58
H       9.52       7.97      18.69
H       9.02       6.99      15.25
H       6.26       8.27      22.44
H       5.87       6.69      20.55
H       5.12       4.00      14.81
H       3.65       4.39      13.15
H      10.16       6.75      13.26
H       9.24       8.28      13.42
H       9.65       7.65      11.79
H       6.92       4.28      19.00
H       7.92       3.43      17.77
H       6.48       2.60      18.47
C       5.88       5.86      11.23
C       9.26      11.06      22.74
C       7.73      10.07      23.97
C       8.35       9.98      22.72
C       6.43       5.34      13.72
C       5.98       4.68      14.88
C       6.55       4.83      16.14
