44

H      18.05      13.95      19.85
H      18.40      14.51      22.27
H      16.43      18.28      21.52
H      16.14      17.56      19.15
H      14.75      17.42      26.20
H      15.20      17.95      28.62
H      21.83      17.89      27.43
H      21.39      17.32      25.01
H      20.26      16.76      31.88
H      20.62      17.21      34.33
H      18.59      20.82      34.11
H      18.13      20.51      31.66
N      17.08      15.73      19.42
N      17.67      16.82      23.44
N      18.90      18.36      30.21
N      19.63      19.03      34.29
O      19.94      16.78      23.03
O      15.41      16.98      23.80
O      21.17      18.37      29.81
O      16.64      18.38      30.63
C      17.70      14.89      20.27
C      17.89      15.21      21.61
C      17.44      16.44      22.07
C      16.79      17.31      21.20
C      16.63      16.91      19.88
C      19.03      16.95      23.84
C      19.26      17.30      25.25
C      18.17      17.46      26.13
C      16.83      17.35      25.68
C      16.55      17.05      24.26
C      15.77      17.51      26.57
C      16.02      17.80      27.92
C      17.32      17.93      28.39
C      18.42      17.77      27.50
C      19.75      17.91      27.95
C      20.81      17.76      27.06
C      20.57      17.45      25.72
C      20.03      18.23      29.36
C      17.55      18.24      29.81
C      19.16      18.61      31.60
C      19.88      17.67      32.34
C      20.09      17.92      33.69
C      18.95      19.94      33.57
C      18.70      19.77      32.21
