30

H      15.78       5.88       9.74
H      22.88      13.62       9.72
O      16.68       5.47       9.67
O      23.32      12.75       9.72
H      21.57       5.97       9.64
H      19.24       5.21       9.65
H      17.66       9.90       9.20
H      19.00      11.36       9.57
H      20.69      13.13       9.72
H      23.23       7.74       9.63
C      15.68       8.17       9.27
O      15.32       9.28       8.74
O      24.59       9.30       8.62
C      24.24      10.11       9.54
O      14.84       7.28       9.71
C      18.91       6.24       9.58
C      17.11       7.86       9.39
C      22.37      11.77       9.68
C      21.00      12.08       9.67
C      20.05      11.08       9.58
C      20.42       9.72       9.52
O      25.01      10.65      10.40
C      21.81       9.39       9.55
C      19.43       8.65       9.46
C      19.85       7.29       9.54
C      21.25       7.01       9.59
C      22.18       8.00       9.59
C      18.05       8.89       9.34
C      17.55       6.51       9.56
C      22.78      10.43       9.61
