24

C      22.83      10.80       4.24
C      21.59      10.80       7.77
C      20.51      10.81       8.57
C      19.29      10.81      10.71
H      19.65      10.82       3.49
H      19.42      10.81       5.97
H      23.75      10.80       6.18
H      18.35      10.81      10.16
C      20.52      10.80      10.03
C      21.69      10.80      10.82
H      22.59      10.80       8.22
H      19.51      10.81       8.13
C      19.27      10.81      12.10
H      22.68      10.80      10.37
C      21.58      10.80      12.20
H      22.45      10.80      12.85
N      21.71      10.81       3.50
N      20.38      10.80      12.85
Cl      24.35      10.80       3.44
Cl      17.75      10.81      12.90
C      20.52      10.81       4.14
C      20.41      10.81       5.52
C      21.58      10.81       6.31
C      22.81      10.80       5.64
