22

C      11.56       6.28      14.30
C      11.37       8.70      14.34
C      12.74       8.82      14.35
C      13.60       7.68      14.32
C      15.01       7.77      14.31
C      15.20       5.35      14.28
C      13.83       5.24      14.30
C      12.97       6.38      14.31
C      10.78       7.42      14.31
C      15.80       6.64      14.29
H      11.08       5.31      14.28
H      10.74       9.58      14.36
H      15.49       8.75      14.32
H      15.84       4.47      14.26
C      17.29       6.76      14.26
C       9.28       7.30      14.29
Cl      13.13       3.64      14.30
Cl      13.44      10.41      14.37
O      17.77       7.94      14.26
O      17.97       5.68      14.25
O       8.80       6.12      14.22
O       8.62       8.38      14.36
