60

C      11.37      11.19       6.63
H       7.78      12.33       1.17
C      11.37       6.67      -6.63
C       8.35       9.20       7.74
C       8.35       8.66      -7.75
C       9.37       9.77       6.91
N       7.94       8.82      -3.53
N      10.46       7.46      -7.42
H       7.78       5.53      -1.17
H       6.19       8.05       5.33
H       6.19       9.81      -5.33
H       6.48       8.18       7.82
H       6.48       9.68      -7.82
H      10.54      10.39       8.44
N       7.94       9.04       3.53
H      12.03      10.58       6.00
H      12.00      11.78       7.31
H      10.83      11.90       5.97
H      10.54       7.47      -8.44
H      12.03       7.28      -6.00
H      12.00       6.08      -7.31
H      10.83       5.96      -5.97
H       9.94      10.10       4.84
H       9.94       7.76      -4.84
O       8.09      11.12      -3.59
O       8.10       6.74       3.59
N      10.46      10.40       7.42
O       7.73      11.33       3.46
O       9.49       9.67       9.78
O       7.35       8.92      -9.87
O       9.49       8.19      -9.78
O       7.35       8.94       9.87
O       7.73       6.53      -3.46
H       7.87      12.26      -1.36
H       7.87       5.60       1.36
C       9.37       8.09      -6.91
C       9.19       9.68       5.51
C       9.19       8.18      -5.51
C       8.06       9.08       4.97
C       8.06       8.78      -4.97
C       8.40       9.27       9.23
C       8.40       8.59      -9.23
C       7.06       8.53       5.78
C       7.06       9.33      -5.78
C       7.81       7.59      -2.85
C       7.81      10.27       2.85
C       7.97      10.10      -2.92
C       7.97       7.76       2.92
C       7.86      10.12      -1.44
C       7.86       7.74       1.44
C       7.83       8.91      -0.71
C       7.23       8.60       7.15
C       7.83       8.95       0.71
C       7.81       7.66      -1.37
C       7.81      10.20       1.37
C       7.84      11.34      -0.77
C       7.84       6.52       0.77
C       7.80      11.38       0.63
C       7.80       6.48      -0.63
C       7.23       9.26      -7.15
