13

O       3.68      17.08       9.86
C       5.31      16.08      11.29
C       4.45      17.31      11.02
H       2.24      18.51      10.31
H       3.56      19.04       9.21
O       1.35      18.79       7.85
O       2.09      16.63       7.85
H       5.11      18.18      10.88
H       3.79      17.50      11.88
C       2.05      17.81       8.28
C       2.90      18.20       9.48
O       6.01      16.19      12.35
O       5.26      15.11      10.48
