13

C      17.57       7.62      12.52
H      15.68       4.22      13.55
H      17.70       9.69      12.08
N      17.66       7.19      11.25
C      17.04       5.53      12.53
H      18.81       9.15      13.36
N      17.20       6.60      13.35
C      16.62       4.17      12.97
H      16.47       3.53      12.09
C      17.81       9.02      12.94
N      17.31       5.86      11.26
H      17.09       9.30      13.72
H      17.38       3.72      13.62
