54

C      12.26       0.98       7.93
C      12.26       3.85      16.30
C      12.96       0.00      11.53
C      12.96       1.22      13.65
C      12.96      -1.22      13.65
C      12.96       0.00      10.05
H      14.20      -1.76       9.85
C      12.96       2.50      14.39
H      14.20       3.56      12.96
C      12.96      -2.50      14.39
H      14.20      -1.80      16.02
H      11.72      -3.56      12.96
H      11.72       1.76       9.85
C      12.96       0.00       7.21
H      11.72       1.80      16.02
C      12.96       4.96      15.81
C      12.96      -4.96      15.81
H      12.96       0.00       6.12
H      12.96       5.90      16.35
C      12.96       1.21      12.25
H      12.96      -5.90      16.35
C      12.96      -0.00      14.34
C      12.96      -1.21      12.25
H      12.96       2.15      11.70
H      12.96      -0.00      15.43
H      12.96      -2.15      11.70
O      14.82      -1.83       6.02
O      14.82       6.91      14.82
O      14.82      -5.08      17.98
O      11.10      -6.91      14.82
C      13.64      -0.99       9.33
O      11.10       1.83       6.02
C      13.64       3.62      13.89
O      11.10       5.08      17.98
C      13.64      -2.64      15.60
C      12.28      -3.62      13.89
C      12.28       0.99       9.33
C      12.28       2.64      15.60
O      14.85      -3.00       7.98
O      14.85       5.80      12.82
O      14.85      -2.80      18.02
O      11.07      -5.80      12.82
C      14.49      -2.02       7.24
O      11.07       3.00       7.98
C      14.49       5.94      14.05
O      11.07       2.80      18.02
C      14.49      -3.93      17.54
C      11.43      -5.94      14.05
C      11.43       2.02       7.24
C      11.43       3.93      17.54
C      13.66      -0.98       7.93
C      13.66       4.83      14.60
C      13.66      -3.85      16.30
C      12.26      -4.83      14.60
