28

H      -4.50       3.76      12.74
C      -2.60       0.68      12.78
N      -1.05       1.59      14.27
N      -1.63      -0.27      12.65
N      -2.10      -1.21      11.81
N      -3.67       0.42      12.02
N      -5.71      -2.96       8.68
H       0.36       2.29      15.61
H      -1.11       4.15      16.44
H      -3.39       4.45      15.45
H      -2.98      -3.32      10.64
H      -4.42      -4.55       9.02
H      -6.89      -1.27       8.50
H      -5.59       0.08      10.16
H      -4.88       2.04      13.00
H      -5.26       3.26      14.27
C      -0.65       2.45      15.21
C      -1.46       3.49      15.66
C      -2.73       3.65      15.10
C      -2.31       1.73      13.73
C      -3.18       2.77      14.11
C      -3.33      -0.76      11.45
C      -4.16      -1.51      10.52
C      -3.85      -2.84      10.19
C      -4.64      -3.52       9.29
C      -6.02      -1.70       9.01
C      -5.30      -0.94       9.92
C      -4.54       2.95      13.50
