34

O       1.33       9.38      18.73
O      -1.34      18.20       8.10
O      -0.93       9.36      18.69
O       0.92      18.33       8.22
O      -3.07      11.59      18.12
O      -1.28      12.13      19.42
O       3.13      17.82      10.50
O       1.49      19.33      10.95
H       1.90      11.70      14.40
H      -2.04      14.50      11.21
H       2.02      10.09      16.31
H      -2.08      16.11       9.32
H      -1.77      13.31      16.02
H       1.73      16.17      12.50
H      -1.95      12.03      20.12
H       2.25      19.95      10.85
C       0.21       9.77      18.29
C      -0.22      17.93       8.64
C       1.12      11.69      15.17
C      -1.22      15.21      11.07
C       1.19      10.79      16.23
C      -1.25      16.11      10.01
C       0.20      10.79      17.21
C      -0.21      17.04       9.83
C      -0.86      11.71      17.14
C       0.85      17.06      10.75
C      -0.95      12.60      16.07
C       0.90      16.14      11.80
C       0.05      12.59      15.07
C      -0.14      15.21      11.97
C      -0.03      13.50      13.98
C      -0.09      14.29      13.05
C      -1.87      11.79      18.24
C       1.95      18.08      10.68
