20

H       5.79       0.94       3.47
H       3.79      -0.94       7.54
H       3.56      -0.84       3.55
H       6.02       0.83       7.45
H       2.45       0.74       5.65
H       7.13      -0.74       5.35
C       4.86      -2.84       5.45
C       4.72       2.84       5.56
C       4.10      -0.45       4.42
C       5.48       0.45       6.59
C       3.49       0.40       5.59
C       6.10      -0.40       5.42
C       5.35       0.50       4.37
C       4.23      -0.50       6.63
C       4.72       1.35       5.54
C       4.86      -1.36       5.46
O       3.72      -3.41       5.44
O       5.86       3.40       5.57
O       3.59       3.43       5.53
O       5.99      -3.44       5.47
