16

C      18.56      15.53       9.80
S      18.57      19.14      13.83
S      18.57      18.28       9.74
Cl      18.57      21.75      10.43
Cl      18.57      15.68      13.16
C      18.57      20.51      11.60
C      18.57      16.92      11.98
C      18.57      20.66      12.98
C      18.57      21.89      13.78
O      18.56      23.00      13.15
C      18.57      18.29      12.35
C      18.57      19.14      11.23
C      18.57      16.76      10.60
O      18.60      21.74      15.06
O      18.54      15.69       8.53
O      18.57      14.42      10.43
