36

H       5.64       9.72       2.23
H       5.58       6.80      -2.22
H       8.77       9.73      -2.22
H       8.84       6.81       2.21
C       7.13       8.30      -6.38
C       7.30       8.30       6.38
C       6.35       9.08       2.75
C       6.28       7.45      -2.74
C       8.07       9.09      -2.74
C       8.15       7.46       2.73
C       6.38       9.06       4.14
C       6.27       7.50      -4.13
C       8.05       9.07      -4.13
C       8.17       7.51       4.12
C       7.28       8.29       4.87
C       7.15       8.29      -4.87
C       7.24       8.26       2.03
C       7.18       8.27      -2.03
C       7.21       8.26       0.61
C       7.19       8.26      -0.61
N       5.35       9.86       4.85
N       5.26       6.69      -4.83
N       9.08       9.86      -4.83
N       9.20       6.71       4.82
O       6.98       9.44      -6.93
O       7.16       7.18       6.94
O       7.45       9.44       6.92
O       7.26       7.18      -6.94
O       5.19      11.02       4.46
O       4.73       9.30       5.75
O       4.57       7.26      -5.68
O       5.17       5.50      -4.51
O       9.27      11.02      -4.43
O       9.69       9.30      -5.75
O       9.84       7.29       5.71
O       9.36       5.55       4.44
