26

H       2.04       0.38      13.86
H       3.22       2.54      13.87
H       7.59       5.09      17.36
H       6.34       2.97      17.40
H       5.44       6.32      13.86
H       4.18       4.21      13.87
H       4.18      -0.85      17.36
O       1.45      -1.85      14.67
H       5.38       1.30      17.40
O       8.21       7.31      16.53
O       2.59      -2.51      16.52
O       7.06       7.96      14.67
C       2.31      -1.67      15.59
C       7.35       7.12      15.60
C       3.04      -0.37      15.61
C       6.60       5.84      15.61
C       2.78       0.60      14.63
C       3.45       1.81      14.65
C       6.84       4.88      16.60
C       6.13       3.68      16.61
C       5.63       5.57      14.63
C       4.92       4.38      14.65
C       3.99      -0.09      16.60
C       4.66       1.12      16.61
C       4.42       2.11      15.63
C       5.15       3.39      15.63
