36

C       0.34      12.01       2.00
C      -0.38       8.23      -2.00
N       1.85      11.93      -0.96
N      -1.81       8.20       0.92
N      -1.35      11.27      -2.16
N       1.24       8.78       2.12
N       2.34       8.97      -0.95
N      -2.38      11.20       0.96
O      -1.41       6.06      -4.41
O       1.40      14.17       4.42
H       2.42      11.47      -1.68
H       1.55      12.86      -1.26
H      -2.24       8.49       1.80
H      -1.47       7.24       1.00
O       0.86       6.04      -4.35
O      -0.87      14.18       4.38
H      -1.33      12.29      -2.16
H      -0.99      10.94      -3.06
H       0.67       8.74       2.97
H       2.14       9.20       2.36
H       2.13       8.16      -1.53
H       3.07       8.73      -0.28
H      -3.09      11.47       0.27
H      -2.18      12.00       1.57
C      -0.28       6.44      -3.95
C       0.27      13.78       3.97
C      -0.63      10.73      -1.06
C       0.61       9.47       1.08
C       0.83      11.08      -0.49
C      -0.83       9.13       0.50
C       0.29      12.82       2.92
C      -0.31       7.41      -2.89
C      -1.19      10.66       0.41
C       1.17       9.55      -0.39
C       0.23      11.06       0.98
C      -0.25       9.19      -0.98
