19

C       1.01       0.38      15.56
N      -1.88       0.07      13.24
H       4.52       1.60      11.91
H      -2.59       0.18      13.96
C       1.80       0.57      13.29
C       2.86       0.79      12.29
O       0.20       0.14      17.77
H      -2.12       0.63      12.41
O       2.42       0.50      17.49
C      -0.57       0.23      13.71
O       4.03       1.25      12.74
H       0.33       0.31      11.74
O       2.67       0.59      11.07
H       3.06       0.83      15.05
H      -1.09       0.04      15.80
C       0.50       0.36      12.81
C       2.06       0.61      14.67
C      -0.29       0.20      15.08
C       1.24       0.34      17.05
