18

N      10.58       6.30       0.63
N      18.46       6.66       1.85
N      18.36       7.84       1.14
H      16.76       9.11       0.59
N      10.50       7.45      -0.10
C      13.91       7.75       1.14
H      11.81       9.09      -0.44
C      14.84       7.17       1.93
F      12.12       5.23       1.97
C      17.23       6.34       2.24
C      11.77       6.29       1.23
C      16.27       7.27       1.81
F      14.39       8.71       0.26
C      17.07       8.20       1.11
F      14.41       6.27       2.86
F      17.05       5.21       2.95
C      11.64       8.15       0.07
C      12.52       7.44       0.92
