18

N      -1.96      12.95      16.81
H      -2.12      13.55      17.62
H      -1.90      11.95      16.98
H      -3.21      16.07      13.68
H      -1.86      11.41      14.68
H      -2.90      14.42      11.80
O      -3.52      16.77      15.96
O      -2.21      15.58      17.37
O      -2.13      10.56      12.38
O      -2.18      12.16      10.85
C      -2.64      14.70      15.22
C      -2.24      13.37      15.54
C      -2.13      12.44      14.48
C      -2.36      12.82      13.16
C      -2.73      14.14      12.84
C      -2.89      15.05      13.87
C      -2.80      15.75      16.25
C      -2.21      11.80      12.07
