22

O      15.39      10.10       9.22
O      12.28       8.83       9.33
O      12.57       9.77       7.27
H      10.48      10.57      10.17
H       9.49      11.83       9.42
H      11.28      11.88       7.89
H      11.83      13.07       9.08
H      13.02      11.00      10.25
H      13.90      12.65       8.07
H      16.63      12.86       8.75
H      16.15      12.40       7.10
H      17.28      11.35       8.03
C      10.50      12.48      11.15
C      10.46      11.63       9.90
C      11.59      12.01       8.94
C      12.85      11.16       9.17
C      15.25      11.20       8.68
C      16.40      12.00       8.10
C      12.58       9.79       8.55
N      14.02      11.79       8.59
O      10.56      13.74      10.94
O      10.48      11.91      12.28
