18

H       3.29      13.89       4.77
C       4.65      13.81       2.42
C       1.93      12.08       6.31
C       3.38       8.93       2.64
C       4.00      12.66       3.16
C       4.03      11.37       2.61
C       3.40      10.30       3.27
O       5.32      13.47       1.37
C       2.76      10.53       4.50
O       4.50      14.99       2.85
C       2.70      11.82       5.03
O       1.85      13.32       6.66
C       3.33      12.88       4.36
O       3.54       8.91       1.36
O       3.18       7.93       3.38
H       4.51      11.20       1.66
O       1.41      11.10       6.91
H       2.28       9.71       5.02
