17

C      17.04      16.69      13.65
C      19.13      18.06      14.07
O      20.01      18.83      13.57
C      16.12      16.16      12.74
C      17.42      17.05      10.88
C      18.31      17.61      11.77
O      19.03      17.79      15.34
O      15.69      15.65       9.19
O      14.24      15.29      10.91
C      15.34      15.71      10.42
H      17.55      17.16       9.80
H      15.26      15.61      13.11
H      19.16      18.19      11.42
O      16.83      16.45      14.96
H      17.59      16.85      15.45
C      18.15      17.44      13.16
C      16.31      16.33      11.37
