16

C      24.03       8.88      26.66
H      27.90      11.29      27.57
O      28.87      11.90      29.76
O      24.31       9.04      25.42
O      27.67      11.15      31.55
O      23.03       8.25      27.12
C      27.04      10.76      27.98
C      25.79       9.98      29.90
C      27.88      11.29      30.30
Cl      23.54       8.58      29.87
C      24.99       9.48      27.65
C      26.89      10.66      29.37
C      24.85       9.39      29.06
H      25.67       9.91      30.98
H      26.20      10.23      26.06
C      26.10      10.17      27.15
