23

C       8.82      15.98      14.59
H       9.79      15.51      14.78
C       8.11      15.73      13.43
H       8.52      15.03      12.69
H       5.42      17.67      14.18
C       6.87      16.35      13.21
C       6.39      17.17      14.25
H       6.78      17.99      16.21
C       7.16      17.37      15.39
H       7.87      15.81      10.74
C       6.12      16.20      11.96
H       6.63      15.81       8.59
H       2.95      16.50      10.70
C       6.79      15.95      10.74
C       6.10      15.96       9.53
H       4.18      16.55      12.86
N       8.37      16.80      15.56
C       4.72      16.18       9.51
C       4.03      16.35      10.72
C       4.72      16.38      11.93
O       4.69      16.34       7.13
C       3.99      16.31       8.22
O       2.73      16.45       8.18
