10

N       3.41      11.42       6.08
C       4.05       9.36       5.73
C       5.21      10.07       6.06
C       3.72       7.97       5.40
O       2.48       7.70       5.19
H       6.22       9.69       6.13
O       4.63       7.08       5.37
H       5.31      12.27       6.54
C       4.76      11.37       6.27
N       2.98      10.19       5.75
