10

C       8.91       4.66       8.17
C      10.30       6.32       9.78
C       8.91       6.31       9.78
C      10.30       4.66       8.16
H       8.32       4.00       7.53
H      10.89       6.97      10.41
H       8.32       6.97      10.41
H      10.89       4.00       7.53
N      10.98       5.49       8.97
N       8.23       5.49       8.97
