28

H       3.42       3.88       4.80
H       3.19       3.95       2.33
H       7.29       5.76       4.50
H       2.69       4.60      -4.71
H       6.56       6.47      -4.59
H       6.59       6.23      -2.09
C       4.61       5.72      -6.27
C       5.47       4.84       6.28
C       5.36       4.83       4.80
C       4.21       4.32       4.19
C       4.08       4.35       2.81
C       5.09       4.93       2.01
C       6.25       5.43       2.64
C       6.39       5.37       4.02
C       4.92       5.01       0.61
C       4.76       5.10      -0.60
C       4.68       5.25      -1.99
C       3.58       4.78      -2.76
C       3.54       4.95      -4.14
C       4.62       5.56      -4.79
C       5.73       6.01      -4.06
C       5.75       5.87      -2.68
Cl       7.50       6.16       1.70
Cl       2.27       3.99      -1.96
O       3.51       5.51      -6.88
O       4.40       4.59       6.93
O       6.60       5.09       6.82
O       5.69       6.07      -6.83
