26

H      14.90      16.51       5.00
H      13.69      17.19       7.04
H      13.63      22.21      10.58
H      14.90      21.49       8.60
H      11.49      18.50      10.59
H      12.73      17.75       8.61
H      17.04      20.23       4.99
H      15.85      20.93       7.03
O      12.01      21.99      12.40
O      16.49      16.75       3.16
O      10.87      20.02      12.41
O      17.63      18.71       3.16
C      11.73      20.84      11.92
C      16.76      17.90       3.64
C      16.04      18.33       4.86
C      12.48      20.40      10.71
C      15.09      17.48       5.46
C      14.42      17.88       6.61
C      13.45      21.23      10.14
C      14.15      20.82       9.01
C      12.24      19.14      10.14
C      12.95      18.73       9.02
C      16.30      19.57       5.45
C      15.62      19.96       6.60
C      14.66      19.13       7.21
C      13.92      19.56       8.42
