26

C       2.75       1.21      12.87
C      -2.75      -1.21      12.87
C       2.75      -1.21      12.87
C      -2.75       1.21      12.87
C       0.61       0.00      12.87
C      -0.61       0.00      12.87
N       4.84       0.00      12.87
N      -4.84       0.00      12.87
Cl       4.97       2.67      12.87
Cl      -4.97      -2.67      12.87
Cl       4.97      -2.67      12.87
Cl      -4.97       2.67      12.87
H       2.74       3.09      12.87
H      -2.74      -3.09      12.87
H       2.74      -3.09      12.87
H      -2.74       3.09      12.87
O       2.07       2.37      12.87
O      -2.07      -2.37      12.87
O       2.07      -2.37      12.87
O      -2.07       2.37      12.87
C       4.15       1.15      12.87
C      -4.15      -1.15      12.87
C       4.15      -1.15      12.87
C      -4.15       1.15      12.87
C       2.01       0.00      12.87
C      -2.01       0.00      12.87
