26

H       4.96       1.86      12.06
H       6.54       2.40      11.47
H       6.33       0.90       9.70
H       4.85       0.21      10.39
H       4.82      -0.13      13.58
H       4.99      -1.80      11.94
H       8.55      -0.00      13.51
H       8.68       1.41      12.48
H       8.58       0.10      10.55
H       8.69      -1.32      11.58
H       6.27      -0.81      14.32
H       6.56      -2.30      12.56
C       6.64      -1.77       9.84
C       6.60       1.84      14.19
C       5.97       1.52      11.78
C       5.90       0.48      10.62
C       5.86      -0.40      13.38
C       8.09       0.50      12.65
C       6.65       0.88      13.01
C       6.67      -0.80      11.01
C       5.98      -1.43      12.24
C       8.10      -0.41      11.40
O       5.47       2.31      14.52
O       7.74      -2.06       9.27
O       5.49      -2.23       9.50
O       7.70       2.07      14.79
