70

H       7.83       7.76      12.14
H       8.45       9.54      23.66
H      10.81       9.28      22.70
H      10.53      10.91      23.37
H      10.49      10.64      21.61
H       2.09       8.28      11.17
H       2.50       9.21      12.63
H       0.78       6.67      12.57
H       1.19       7.60      14.02
H      -0.04       9.62      13.03
H      -1.11       8.22      13.23
H       4.75       4.87      20.63
H      -0.49       8.64      11.62
H       3.32      10.56      14.31
H       4.13      10.28      15.88
H       1.15       9.77      15.35
H       1.98       9.59      16.90
H       2.55      12.07      16.87
H       0.79      11.81      16.79
H       1.69      12.24      15.33
H       5.41      10.66      20.41
H       4.66      10.33      18.81
H       6.85       9.19      16.70
H       7.11      12.13      19.27
H       6.35      11.80      17.71
H       4.19      12.87      18.54
H       5.55      14.01      18.62
H       4.97      13.21      20.10
H       4.54       7.16      16.62
H       4.46       5.60      18.26
H       8.00       8.54      14.51
H       8.59       9.20      20.62
H       8.74       7.90      21.85
H       8.14      10.84      22.50
C       5.98       6.16      22.61
C       5.70       7.07      10.76
C       5.85       6.62      21.19
C       5.70       7.56      12.17
C       6.32       7.88      20.78
C       4.52       7.76      12.93
C       6.13       8.31      19.45
C       4.62       8.31      14.22
C       5.48       7.48      18.52
C       5.87       8.50      14.84
C       4.98       6.24      18.97
C       7.03       8.36      14.05
C       5.15       5.82      20.28
C       6.94       7.90      12.74
C       5.30       7.79      17.11
C       6.02       8.60      16.30
C       8.30       8.89      21.63
C       8.72       9.91      22.67
C      10.22      10.20      22.58
C       2.23       8.21      12.26
C       0.98       7.69      12.94
C      -0.23       8.59      12.69
C       3.29       9.96      15.24
C       1.97      10.17      15.97
C       1.74      11.65      16.26
C       5.60      10.60      19.32
C       6.14      11.91      18.79
C       5.16      13.06      19.02
O       3.33       7.29      12.47
O       3.44       8.57      14.90
O       6.58       9.56      19.08
O       4.95       5.61      23.11
O       6.82       6.64      10.31
O       7.09       6.35      23.21
O       4.63       7.16      10.08
O       6.86       8.76      21.69
