22

H       6.92      10.27       7.20
H       3.66      14.82       7.30
H       2.63      10.09       7.19
H       7.95      15.00       7.30
C       5.72      16.53       7.32
C       4.86       8.56       7.18
C       4.79      10.05       7.19
C       5.79      15.04       7.30
C       7.11      13.01       7.24
C       3.47      12.08       7.25
C       7.05      14.39       7.29
C       3.53      10.70       7.21
C       4.62      14.30       7.29
C       5.96      10.79       7.21
C       4.65      12.88       7.26
C       5.93      12.21       7.23
I       9.03      12.13       7.19
I       1.55      12.96       7.30
O       4.56      17.05       7.23
O       6.02       8.04       7.27
O       6.82      17.17       7.41
O       3.76       7.92       7.08
