18

O       2.47      13.46      15.20
H       0.00      13.58      15.47
C       0.00      12.39      19.17
C       0.00      13.26      16.51
C       0.00      11.89      20.58
O      -2.47      13.46      15.20
C      -1.21      12.62      18.51
H       2.14      12.45      19.04
C      -1.21      13.06      17.18
C      -2.50      13.36      16.48
C       1.21      12.62      18.51
C       1.21      13.06      17.18
C       2.50      13.35      16.48
O      -1.14      11.69      21.12
O      -3.58      13.51      17.13
H      -2.14      12.45      19.04
O       1.14      11.69      21.12
O       3.58      13.51      17.13
