16

C      26.90      13.93      14.20
C      27.64      17.09      12.09
S      28.42      15.84      12.96
S      25.47      18.22      11.21
O      28.07      13.47      14.47
O      25.78      13.46      14.59
C      27.01      20.18      10.05
C      26.25      16.97      12.10
C      25.81      15.84      12.84
C      28.09      18.23      11.37
C      26.88      15.14      13.37
C      27.01      18.94      10.84
Cl      24.15      15.46      13.00
Cl      29.74      18.60      11.20
O      25.86      20.56       9.62
O      28.12      20.77       9.87
