18

O      26.05      13.01      14.23
C      27.07      13.77      14.25
S      28.53      15.69      12.98
S      25.56      18.06      11.27
C      27.01      15.02      13.47
C      27.13      19.96      10.01
O      25.99      20.45       9.69
O      28.28      20.42       9.71
O      23.73      15.97      12.40
N      24.53      15.56      13.27
O      24.21      15.07      14.36
C      25.94      15.75      12.96
H      29.22      18.33      11.11
C      28.19      18.04      11.31
C      27.10      18.74      10.82
C      27.75      16.93      12.07
C      26.35      16.82      12.14
O      28.18      13.55      14.85
