28

O      -8.93       9.34      10.87
C      -8.37      11.53      11.59
O     -10.33      10.41      12.30
C      -6.63      13.81      11.59
C      -1.58      20.44      11.59
H      -2.98      16.31      13.24
O      -1.81      21.36      10.72
H      -5.19      17.99       9.93
O      -0.64      20.46      12.45
H      -1.47      18.30      13.23
C      -4.37      18.07      10.65
H      -3.67      19.98       9.95
C      -9.28      10.34      11.59
C      -2.48      19.26      11.59
F      -7.65      14.47      13.63
C      -4.18      17.02      11.59
F      -5.72      13.01       9.54
C      -5.04      15.90      11.59
F      -9.25      12.36      13.66
C      -2.29      18.22      12.51
C      -5.78      14.93      11.59
F      -7.33      10.90       9.51
C      -7.57      13.59      12.62
C      -3.13      17.12      12.52
C      -6.60      12.85      10.56
C      -8.41      12.49      12.62
C      -3.53      19.17      10.66
C      -7.44      11.74      10.55
