10

O       4.49      11.04      11.36
O       2.21      11.10      11.41
O       4.44       7.14      18.12
O       2.15       7.16      18.13
C       3.35      10.80      11.88
C       3.29       7.42      17.64
C       3.35      10.08      13.13
C       3.33       9.46      14.18
C       3.32       8.77      15.34
C       3.30       8.14      16.39
