34

C       8.31       8.93       7.11
C       8.21       8.91       8.33
C       8.15       8.90       9.74
C       6.91       8.87      10.43
C       6.94       8.87      11.83
C       8.14       8.91      12.55
C       9.36       8.95      11.85
C       9.36       8.94      10.47
H       6.25       9.13       3.00
H       6.22       9.05       5.51
H      10.53       8.96       3.05
H       6.00       8.85      12.39
H      10.28       8.98      12.42
H      10.30       8.96       9.92
C      10.92       8.89       5.75
C       5.60       8.84       9.70
H      11.54       9.76       5.50
H      10.77       8.88       6.83
H      11.49       7.99       5.47
H       4.99       9.72       9.95
O       9.26       9.09      14.62
O       7.02       8.76      14.64
H       5.75       8.83       8.61
H       5.02       7.95       9.97
O       7.28       9.25       0.81
O       9.52       8.90       0.79
C       8.14       8.92      14.05
C       8.40       9.07       1.39
C       8.40       9.04       2.88
C       7.18       9.07       3.58
C       7.16       9.03       4.96
C       8.37       8.97       5.69
C       9.61       8.95       5.01
C       9.59       8.98       3.61
