22

O       4.54       1.18      11.19
H       2.14      -1.67      12.36
H       2.45       2.03      10.19
H      -0.04       2.12       9.96
H      -0.12      -2.54      13.01
H      -2.60      -2.33      12.94
H      -2.27       1.12      10.39
C       2.42       0.16      11.28
C      -2.57      -0.59      11.65
C      -0.59      -1.73      12.46
C      -1.96      -1.62      12.41
C      -1.79       0.34      10.98
C      -0.38       0.30      11.08
C       0.24      -0.77      11.81
C       1.65      -0.84      11.86
C       1.81       1.25      10.62
C       0.44       1.30      10.50
C       3.91       0.08      11.36
C      -4.05      -0.49      11.55
O       4.43      -1.06      11.58
O      -4.73      -0.70      12.61
O      -4.52      -0.18      10.40
