33

O       6.03      -3.53      24.26
O       9.88       3.64      16.66
H       9.37      -2.10      22.71
H       9.48      -0.22      21.05
H       5.19       0.04      21.06
H       5.09      -1.84      22.73
H       9.64       5.72      15.00
H       5.51       6.48      15.92
H       5.57       4.64      17.64
H      10.58       3.96      16.06
C       7.57       7.30      14.35
C       8.46      -1.62      22.33
C       8.53      -0.58      21.41
C       7.34       0.02      20.96
C       6.10      -0.44      21.42
C       6.04      -1.48      22.34
C       7.22      -2.07      22.82
C       7.56       3.08      18.30
C       7.41       1.17      20.04
C       8.77       4.41      16.50
C       8.74       5.46      15.58
C       7.57       6.20      15.36
C       6.41       5.89      16.09
C       6.44       4.88      17.03
C       7.61       4.12      17.26
C       7.18      -3.14      23.85
N       6.26       1.63      19.50
N       6.33       2.59      18.61
N       8.69       2.76      18.98
N       8.61       1.77      19.86
O       8.71       7.69      13.93
O       6.43       7.73      13.98
O       8.30      -3.57      24.28
