35

C       5.64       6.54      20.27
H       4.47       7.02      22.08
C       8.01       7.41      20.26
C       6.05       8.97      19.86
C       5.93       9.20      21.39
C       6.33       8.50      24.80
H       4.67       6.59      19.77
C       6.61       7.55      19.61
H       6.70       9.71      19.39
C       5.50       6.80      21.78
C       6.41       7.97      22.19
H       5.08       9.05      19.36
C      10.36       7.99      19.88
H       4.89       9.42      21.68
N       8.96       8.27      19.58
H       6.53      10.06      21.71
H       6.02       5.52      20.13
H       8.34       6.38      20.08
H       8.21       6.77      22.37
H       8.76       9.25      19.77
H      11.00       8.69      19.33
H      10.60       6.97      19.52
H      10.63       8.04      20.96
O       5.32       9.21      26.78
O       7.71       6.00      15.15
O       7.59       9.22      26.58
H       8.50       8.49      22.10
O       5.44       5.88      15.35
C       6.59       6.23      15.75
C       6.33       8.24      23.62
F       5.87       5.63      22.49
C       6.67       7.24      18.19
C       6.66       6.88      17.03
C       6.43       9.00      26.15
C       7.87       7.64      21.80
