28

O      -2.47      26.02       8.31
O      -4.69      26.25       7.90
H      -5.69      16.18       2.15
H      -1.47      15.76       2.91
H      -1.47      23.98       7.43
H      -5.69      24.40       6.66
O      -4.69      14.14       1.26
O      -2.47      13.91       1.67
C      -3.58      25.63       7.83
C      -3.58      14.53       1.74
C      -3.58      15.84       2.46
C      -2.39      16.33       3.01
C      -2.39      17.55       3.68
C      -3.58      18.32       3.82
C      -4.77      17.78       3.25
C      -4.77      16.57       2.58
C      -3.58      19.55       4.49
C      -3.58      20.62       5.08
C      -3.58      21.85       5.75
C      -2.39      22.38       6.33
C      -2.39      23.59       6.99
C      -3.58      24.32       7.11
C      -4.77      23.83       6.56
C      -4.77      22.61       5.90
Cl      -6.24      18.67       3.39
Cl      -0.92      18.14       4.35
Cl      -6.24      22.02       5.22
Cl      -0.92      21.49       6.18
