30

C       8.13       8.44      20.70
C       8.62      10.85      20.15
C       8.60      11.14      21.66
C       9.15      10.62      25.04
C       9.07       9.38      19.91
C       8.21       8.76      22.21
C       9.18       9.93      22.47
C      10.59       9.61      21.93
C      10.52       9.20      20.45
C       9.19      10.28      23.88
C       9.02       9.05      18.50
C       9.01       8.72      17.33
C       9.03      11.17      26.37
I       8.76       7.01      23.41
O       7.86      11.45      26.77
H       7.23       9.01      22.62
H       7.10       8.57      20.34
H       9.32      11.52      19.62
O      10.13      11.36      27.03
H       7.63      11.00      19.70
H       7.58      11.34      22.02
H       9.20      12.02      21.91
H      10.81       8.15      20.31
H      11.20       9.81      19.83
H      11.02       8.80      22.54
H       8.42       7.40      20.49
H      11.22      10.49      22.08
O      10.21       7.88      15.54
O       7.93       7.92      15.43
C       9.07       8.15      16.01
