16

S      11.01       7.33      12.93
S      14.60       8.95      11.47
C       9.99       9.52      14.27
C      12.25       9.62      13.03
C      13.37       6.65      11.38
C      11.09       8.98      13.46
F      12.56      10.90      13.29
C      12.53       7.49      12.14
C      13.09       8.78      12.27
C      14.52       7.29      10.94
C      15.62       6.75      10.13
F      13.06       5.37      11.11
O      16.55       7.58       9.83
O      15.55       5.52       9.80
O      10.13      10.71      14.71
O       9.00       8.72      14.44
