33

N      11.95       3.11      19.96
N      12.51       4.24      19.42
H      22.52       0.10      23.19
H      20.80      -1.62      26.78
N      17.08       8.52      30.65
N      18.22       9.06      30.10
H      14.19       5.45      19.92
H      12.42       1.87      21.61
H      19.41       8.57      28.41
H      15.83       6.88      30.17
C      18.41       2.59      25.01
C      17.53       4.46      25.95
C      16.58       3.57      24.09
C      22.27      -0.50      24.06
C      21.22      -0.32      24.99
C      21.39      -1.37      25.91
C      13.58       4.58      20.16
C      13.74       3.65      21.21
C      12.68       2.74      21.03
C      18.55       8.33      29.02
C      17.61       7.29      28.85
C      16.71       7.47      29.91
C      19.40       1.56      25.00
C      20.24       0.69      25.00
C      15.58       3.61      23.08
C      14.72       3.63      22.21
C      17.55       5.46      26.97
C      17.58       6.31      27.84
N      18.49       3.51      26.00
N      16.55       4.54      25.03
N      17.49       2.57      24.03
N      22.46      -2.12      25.55
N      23.00      -1.57      24.41
