74

H      10.28      11.32       1.22
H      10.13       7.92       4.61
H      10.23      11.32      -1.23
H      10.00       7.92      -4.61
H       9.81       4.52      -1.22
H       9.83       4.52       1.23
O      11.53      14.27       6.55
O       9.17      14.66      -6.16
H      12.34      12.12       5.69
O      11.38      14.28      -6.52
H       8.32      13.10       4.55
O       8.72       1.53       6.49
H      12.22      10.02       4.33
O      10.94       1.19       6.16
H      11.90       2.72       4.45
H       8.02       5.82       4.40
H       7.93       3.72       5.74
H      11.98       4.79       3.06
O       9.33      14.64       6.16
H       8.21      11.04       3.13
O       8.66       1.57      -6.54
H      11.81       2.68      -4.41
H      11.89       4.75      -3.01
H       7.88       3.75      -5.79
H       7.98       5.86      -4.44
H       8.19      13.12      -4.47
H      12.15      12.10      -5.77
H      12.06       9.99      -4.42
H       8.11      11.06      -3.05
C      10.40      13.97       6.03
C      10.19      10.38       0.68
C      10.06       7.92       0.72
C      10.14       9.15       2.84
C      10.12       9.16       1.43
C      10.11       7.92       3.52
C      11.44      11.87       5.13
C      11.37      10.70       4.37
C       9.12      11.28       3.70
C       9.17      12.43       4.48
C      10.25      13.98      -6.02
C      10.16      10.38      -0.69
C      10.04       7.92      -0.71
C      10.04       9.14      -2.85
C      10.07       9.16      -1.43
C      10.01       7.92      -3.52
C       9.78       1.86      -6.01
C       9.90       5.46      -0.68
C       9.99       6.69      -2.84
C       9.99       6.68      -1.42
C       9.84       3.09      -5.18
C       9.94       5.44      -3.63
C      10.18      12.74      -5.19
C      11.27      11.85      -5.18
C      11.21      10.69      -4.43
C      10.08      10.39      -3.64
C       9.00      11.29      -3.65
C       9.04      12.44      -4.44
C       9.86       1.85       6.00
C       9.91       5.46       0.69
C      10.05       6.70       2.85
C      10.02       6.68       1.43
C       9.91       3.09       5.17
C       8.81       3.96       5.16
C       8.87       5.14       4.41
C      10.00       5.44       3.64
C      11.09       4.56       3.65
C      11.05       3.40       4.42
C      10.34      12.74       5.19
C      10.21      10.40       3.64
C       8.76       3.99      -5.18
C       8.82       5.16      -4.43
C      11.01       4.53      -3.62
C      10.97       3.38      -4.40
O      10.85       1.18      -6.14
