27

C       4.07      -0.69       7.37
H       1.24      -2.57       3.68
C       3.78       0.54       7.96
H       5.29      -3.49       2.58
C       3.93      -1.89       8.08
H       2.07      -1.19       5.61
C       3.33       0.57       9.28
H       6.12      -2.03       4.45
C       3.53      -1.84       9.40
H       3.91       1.45       7.39
C       3.21      -0.61      10.01
H       4.18      -2.84       7.60
C       2.85      -0.62      11.46
O       1.49      -3.81       1.50
H       3.09       1.52       9.75
O       3.46      -4.81       1.36
H       3.49      -2.74      10.01
C       2.70      -3.94       1.90
O       4.63      -0.69       6.10
C       3.21      -3.12       3.03
O       2.12       0.28      11.97
C       2.30      -2.48       3.88
O       3.29      -1.62      12.14
C       4.59      -2.98       3.25
C       2.76      -1.72       4.95
C       5.06      -2.18       4.29
C       4.14      -1.56       5.14
