20

H      13.74       9.82       9.28
H      16.72      10.73      13.63
H      15.84      12.28      13.54
H      13.99      11.31      14.97
H      14.87       9.77      15.06
Br      11.37       8.56      10.16
C      11.78       8.93      13.50
C      15.97      11.13      10.03
O      10.86       8.20      13.02
O      11.92       9.24      14.74
O      16.94      11.71      10.61
O      15.82      10.97       8.77
C      14.91      10.57      10.91
C      12.81       9.47      12.57
C      14.94      10.67      12.30
C      12.78       9.38      11.15
C      13.92      10.14      13.09
C      13.80       9.91      10.36
C      15.73      11.19      13.49
C      14.57      10.58      14.39
