28

C      13.39      22.67      12.32
C      14.77      22.62      12.30
C      15.58      23.52      11.57
C      14.88      24.49      10.83
H       6.71      24.59      10.42
H       9.22      24.51      10.46
H      12.99      25.35      10.23
H      12.81      21.95      12.90
F       6.48      21.83      14.03
F       9.12      21.75      14.06
F      15.56      25.42      10.12
F      15.36      21.63      13.01
C       6.46      23.29      12.10
C       4.96      23.34      12.00
C      17.08      23.48      11.62
C       7.24      24.01      11.17
C       8.53      22.49      13.10
N      10.69      23.06      12.26
N      11.35      23.83      11.50
C       7.13      22.53      13.07
O       4.31      22.41      12.56
O       4.47      24.31      11.33
C       8.62      23.97      11.19
C       9.30      23.20      12.16
O      17.71      23.84      10.59
O      17.58      23.09      12.72
C      13.49      24.58      10.81
C      12.75      23.67      11.57
