27

H       4.56       6.92       4.53
H       4.20       4.63       5.42
H       3.80       4.26       7.85
H       3.72       6.23       9.39
H       3.78       8.43       9.80
H       3.39      10.44      10.45
H       3.89      11.87       9.47
H       6.33      12.51       9.37
H       8.53      12.42      10.62
H       8.85      10.65      12.36
H       5.01       9.20      11.80
C       4.33       7.90       6.44
C       4.37       6.76       5.59
C       4.18       5.48       6.10
C       3.95       5.27       7.47
C       3.90       6.36       8.32
C       4.09       7.68       7.83
C       4.03       8.74       8.77
C       4.16      10.85       9.78
C       5.49      10.88      10.50
C       6.50      11.79      10.17
C       7.72      11.73      10.85
C       7.90      10.75      11.82
C       5.76       9.93      11.50
N       4.23      10.01       8.56
N       6.94       9.87      12.14
O       4.48       9.08       5.91
