46

O       4.16       6.11       4.93
H       7.40      -2.18       1.59
H       7.45       0.28       1.53
H       5.09       0.38       5.15
H       5.09       1.20       1.14
H       7.40       5.56       0.70
H       7.45       4.39       2.85
H       5.09       4.27       3.85
H       7.40       2.47       7.84
H       7.45       1.18       5.75
C       6.27       4.85       8.36
C       6.27       4.81      -1.62
C       6.27      -3.81       3.40
C       6.89      -1.61       2.38
C       6.93      -0.22       2.35
C       6.30       0.54       3.35
C       5.61      -0.14       4.36
C       5.61      -1.53       4.39
C       6.25      -2.30       3.41
C       5.61       2.15       1.08
C       5.61       2.82      -0.14
C       6.25       4.05      -0.32
C       6.89       4.60       0.79
C       6.93       3.93       2.01
C       6.30       2.68       2.16
C       5.61       3.84       4.70
C       5.61       4.56       5.89
C       6.25       4.11       7.04
C       6.89       2.86       6.96
C       6.93       2.14       5.77
C       6.30       2.64       4.62
N       6.37       1.95       3.38
N       4.94      -2.17       5.53
N       4.94       2.14      -1.27
N       4.94       5.88       5.87
O       5.30       4.62       9.16
O       7.29       5.56       8.59
O       7.29       4.66      -2.35
O       5.30       5.62      -1.82
O       7.29      -4.36       3.90
O       5.30      -4.39       2.80
O       5.22      -3.34       5.75
O       4.16      -1.47       6.21
O       5.22       2.54      -2.39
O       4.16       1.21      -1.00
O       5.22       6.66       6.77
