28

H       4.17       5.89       6.24
H       7.93       7.60       5.09
H       8.21       5.86       3.33
H       7.45       3.80       2.23
H       1.72       2.40       4.33
H       2.70       1.51       5.51
H       1.34       2.51       6.05
H       3.47       3.69       6.52
H       2.48       4.58       5.39
H       3.74       1.98       3.41
C       5.90       7.86       6.83
C       6.02       6.83       5.76
C       5.60       2.81       2.72
C       4.25       3.74       4.54
C       4.46       2.79       3.56
C       6.56       3.80       2.86
C       6.37       4.82       3.82
C       5.21       4.81       4.66
C       5.05       5.85       5.61
C       7.18       6.83       4.94
C       7.33       5.86       3.98
C       5.73       1.77       1.66
C       3.08       3.66       5.49
C       2.16       2.45       5.33
O       4.73       8.19       7.23
O       7.00       8.32       7.27
O       4.64       1.31       1.21
O       6.90       1.42       1.28
