30

H       0.66      25.55       4.79
H       0.73      27.62       6.14
H       3.33      25.66       8.97
H       3.30      23.62       7.57
Cl       2.28      27.69      10.19
Cl       2.28      29.67       6.37
H       3.33      31.70       7.58
H       3.30      33.74       8.99
H       0.73      29.74      10.42
H       0.66      31.80      11.77
O       2.91      34.98      11.10
O       1.01      34.28      12.12
O       2.91      22.38       5.46
O       1.01      23.07       4.44
C       1.97      34.14      11.29
C       1.97      23.22       5.27
C       1.99      24.46       6.08
C       1.27      25.60       5.69
C       1.32      26.76       6.45
C       2.07      26.81       7.64
C       2.75      25.65       8.05
C       2.73      24.50       7.27
C       2.12      28.02       8.48
C       2.12      29.33       8.08
C       2.75      31.71       8.51
C       2.07      30.54       8.91
C       1.32      30.60      10.11
C       1.27      31.76      10.87
C       1.99      32.89      10.47
C       2.73      32.86       9.28
