28

H       3.36       4.29       4.74
H       3.20       4.43       2.24
H       7.34       5.63       2.07
H       7.49       5.44       4.57
H       2.98       4.82      -2.18
H       2.88       5.09      -4.66
H       7.04       6.17      -4.72
H       7.14       5.94      -2.23
C       4.90       5.82      -6.31
C       5.50       4.74       6.27
C       5.43       4.85       4.79
C       4.22       4.57       4.14
C       4.13       4.66       2.75
C       5.26       5.04       1.99
C       6.48       5.33       2.66
C       6.56       5.23       4.04
C       5.18       5.14       0.58
C       5.12       5.23      -0.63
C       5.07       5.36      -2.04
C       3.86       5.12      -2.74
C       3.81       5.27      -4.12
C       4.95       5.65      -4.83
C       6.16       5.88      -4.15
C       6.22       5.74      -2.77
O       3.77       5.68      -6.88
O       4.41       4.47       6.88
O       6.64       4.91       6.83
O       6.00       6.09      -6.90
