28

H       9.00       5.32      12.45
H       8.94       5.40      14.94
H      12.99       6.88      14.93
H       7.89       7.28      18.33
H      11.85       5.68      18.80
H      11.63       5.93      21.29
C       9.63       6.88      22.71
C      10.89       6.03      10.78
C      10.99       6.08      12.27
C       9.86       5.68      13.00
C       9.83       5.72      14.38
C      10.96       6.18      15.08
C      12.12       6.53      14.38
C      12.14       6.48      12.98
C       8.70       6.99      18.99
C       9.88       6.47      18.43
C      10.95       6.08      19.25
C      10.82       6.23      20.62
C       9.66       6.77      21.22
C       8.60       7.17      20.37
N      11.01       6.32      16.48
N       9.87       6.37      17.02
Cl      13.62       6.94      12.23
Cl       7.16       7.96      20.92
O      10.76       6.88      23.31
O      11.96       5.84      10.13
O       9.73       6.14      10.25
O       8.50       6.95      23.27
