16

C       4.91       2.83       7.88
C       7.84       4.52       6.32
C       6.80       3.93       7.18
O       2.74       1.59      11.96
S       6.98       4.03       8.90
O       1.60       0.90      10.09
C       5.50       3.17       9.13
H       5.41       3.12       5.72
C       2.57       1.48      10.69
S       3.43       1.97       8.11
C       4.75       2.74      10.24
H       5.00       2.88      11.29
C       5.66       3.26       6.77
O       7.67       4.42       5.05
O       8.81       5.10       6.92
C       3.60       2.08       9.83
