30

N       1.48      16.82       0.41
N       1.48      19.96      -7.49
O       1.02      13.40      -1.12
O       2.94      13.84       0.01
O       1.02      23.39      -5.96
O       2.94      22.95      -7.08
H       1.71      18.79      -1.27
H       1.71      17.99      -5.81
H       2.64      22.40      -3.72
H       2.81      20.36      -2.35
H       2.64      14.38      -3.36
H       2.81      16.43      -4.73
C       2.00      14.14      -0.79
O       1.14      15.79       1.01
O       1.49      17.95       0.91
C       2.00      22.65      -6.28
O       1.14      21.00      -8.09
O       1.49      18.83      -7.99
C       2.10      15.43      -1.55
C       2.10      21.36      -5.52
C       1.87      16.69      -1.00
C       1.95      17.85      -1.76
C       1.87      20.10      -6.08
C       1.95      18.93      -5.31
C       2.44      21.43      -4.17
C       2.53      20.27      -3.40
C       2.44      15.36      -2.91
C       2.53      16.51      -3.68
C       2.27      17.78      -3.12
C       2.27      19.00      -3.95
