20

C      14.24       3.42       2.34
H      13.30       6.86       8.54
Cl      14.54       2.27       9.60
Cl      14.43       1.75       6.50
Cl      13.17       6.95       5.70
O      13.81       2.28       2.01
O      14.97       4.20       1.62
O      14.08       6.92      13.28
O      13.15       4.88      13.73
C      13.74       5.74      12.96
C      13.94       5.34      11.60
C      14.14       3.53       8.52
C      14.10       3.31       7.14
C      13.52       5.65       6.77
C      13.54       5.87       8.14
C      13.87       4.83       9.03
C      13.81       4.37       6.24
C      13.85       4.14       4.85
C      13.91       5.08      10.41
C      13.94       3.88       3.67
