21

C       1.29       6.55       8.85
C       0.23       5.70       8.54
C       2.19       8.86       9.35
N      -3.53       3.64       8.20
N      -2.17       5.38       8.17
H      -5.02       4.45       6.87
H       0.41       4.64       8.34
O       1.96      10.12       9.28
H      -3.31       6.65       6.84
C      -4.08       4.61       7.38
O       3.34       8.38       9.65
C      -3.25       5.70       7.36
H      -1.71       3.62       9.35
H      -2.34       7.95       8.73
C      -2.38       4.13       8.66
H      -0.41       9.47       9.24
C      -1.07       6.23       8.48
H       2.31       6.17       8.91
C      -1.31       7.58       8.73
C      -0.24       8.42       9.01
C       1.06       7.92       9.06
