30

H       3.15       0.22       9.40
C       6.14       0.25       9.56
C       3.61       8.61       8.38
H       3.55       0.87      11.03
H       2.34      -0.44      10.85
H       4.09       9.36       4.32
H       3.39       7.96       5.20
H       5.08       7.90       4.62
N       2.96      10.33       7.06
N       6.03      -2.03       9.52
N       2.07      10.27       8.12
C       5.84       1.60       9.75
N       7.21      -1.65       8.88
C       3.27      -0.02      10.46
C       4.30       8.55       5.02
O       4.26      -1.06      10.63
C       4.25       7.43       8.77
C       5.35       5.08       9.04
C       5.08       4.09       9.94
O       4.81       9.08       6.28
C       5.53       2.77       9.88
C       4.79       6.35       8.97
F       8.26       0.33       8.32
F       4.22       4.39      10.97
F       6.21       4.75       8.02
C       5.40      -0.92       9.93
C       3.86       9.34       7.19
F       1.81       8.95      10.02
C       2.48       9.26       8.90
C       7.24      -0.32       8.90
