28

Cl       0.71      39.12      22.06
Cl       3.28      36.74      17.92
Cl       3.28      35.82      23.96
Cl       0.72      33.43      19.83
H       3.10      39.42      16.99
H       0.89      41.27      20.20
H       0.89      31.29      21.68
O       1.06      29.97      23.85
C       2.00      30.80      24.10
O       2.93      30.61      24.95
O       1.06      42.58      18.04
H       3.10      33.14      24.89
C       2.00      41.75      17.78
O       2.93      41.95      16.94
C       2.00      40.47      18.52
C       2.61      39.34      17.96
C       2.58      38.13      18.65
C       2.00      38.02      19.93
C       1.41      39.19      20.48
C       1.38      40.39      19.78
C       2.00      36.81      20.64
C       2.00      35.75      21.25
C       2.00      34.53      21.95
C       1.41      33.36      21.40
C       1.38      32.16      22.10
C       2.00      32.09      23.36
C       2.61      33.21      23.92
C       2.58      34.42      23.24
