36

H       2.05       9.17       7.29
H       1.79      11.33       8.53
H       2.04      13.48       4.81
H       2.04      14.12      11.12
H       1.79      16.28       7.41
H       2.05      18.44       8.65
H       4.43      10.58       2.51
H       4.43      17.03      13.43
C       2.29      18.82      11.26
C       2.29       8.78       4.68
C       2.15      10.11       5.36
C       2.02      10.12       6.76
C       1.87      11.31       7.45
C       1.86      12.53       6.74
C       1.99      12.53       5.34
C       2.13      11.33       4.66
C       1.99      15.07      10.59
C       1.86      15.08       9.20
C       1.87      16.29       8.49
C       2.02      17.49       9.18
C       2.15      17.50      10.58
C       2.13      16.28      11.28
S       2.50      11.45       2.91
S       2.51      16.16      13.02
N       1.82      13.81       7.34
N       1.82      13.80       8.60
O       1.32      19.17      12.01
O       3.33      19.49      10.98
O       1.32       8.43       3.92
O       3.33       8.12       4.96
O       1.33      11.16       2.10
O       3.14      12.71       2.69
O       3.45      10.24       2.70
O       1.33      16.45      13.84
O       3.14      14.89      13.25
O       3.45      17.37      13.24
