18

O      13.65      10.01       2.46
H      15.81      12.77      -0.16
S      15.31      13.59       1.75
O      14.32      14.35       1.03
O      16.17      14.21       2.72
H      14.14      13.25       5.82
O      16.28      12.87       0.72
H      13.42      14.90       3.31
H      13.70      11.35       4.27
O      13.55      15.55       6.55
O      13.27      16.93       4.76
C      14.47      12.22       2.57
C      13.47      15.79       5.29
C      14.09      11.01       1.80
C      14.00      13.44       4.75
C      13.62      14.67       4.35
C      14.07      12.30       3.86
O      14.19      11.08       0.52
