34

C       0.71       2.73       4.55
C      -0.07       3.94       4.90
C       0.44       5.21       4.62
C      -0.34       6.33       4.84
C      -1.63       6.24       5.40
C      -2.13       4.96       5.71
C      -1.36       3.83       5.44
C      -3.61       7.34       6.18
C       1.22       9.88       4.68
C       2.44      10.30       4.15
C       2.50      11.53       3.50
C       1.35      12.31       3.37
C       0.12      11.86       3.89
C       0.05      10.64       4.56
C       1.43      13.66       2.72
S       1.16       8.32       5.51
H       1.44       5.33       4.20
H      -3.12       4.85       6.15
H      -1.77       2.84       5.65
H      -3.53       6.98       7.21
H      -4.29       6.71       5.60
H      -3.98       8.36       6.18
H       3.33       9.68       4.25
H       3.44      11.88       3.09
H      -0.76      12.48       3.78
H      -0.90      10.28       4.96
O       0.39      14.39       2.71
O       2.55      14.03       2.23
O       2.44       7.68       5.42
O       0.13       7.60       4.44
O       1.98       2.78       4.47
O       0.06       1.66       4.31
O      -2.31       7.40       5.56
O       0.50       8.43       6.78
