71

O      18.19       6.71      16.34
O      16.31       6.96      17.54
O      14.18       6.49      11.49
O      11.92       7.50       9.19
O      10.54      13.22       6.81
O      12.59      13.04       6.01
O      13.72       3.28      10.43
O      14.56      -2.99       9.69
O      16.36      -2.26       8.62
O      11.52       4.40       8.17
O       6.49       0.81       6.53
O       7.86       0.47       4.78
H      14.26       6.34      16.09
H      13.00       6.16      13.95
H      16.61       7.08      11.78
H      17.87       7.20      13.95
H      12.84       4.97      12.00
H      12.09       6.55      11.57
H      13.09       6.36       7.91
H      13.97       7.16       9.25
H      13.83       8.56       7.57
H      13.68      10.73       6.54
H       9.77      11.35       8.34
H       9.94       9.13       9.40
H      14.95       4.83       9.78
H      13.90       4.09       8.51
H      15.53       2.58       8.48
H      16.20       0.23       8.05
H      13.63      -1.10      11.25
H      12.97       1.24      11.68
H      10.67       5.50       9.74
H      11.32       3.89      10.18
H      11.66       3.32       5.89
H       9.92       1.83       4.83
H       7.43       2.28       8.28
H       9.13       3.76       9.35
H      13.35      12.43       6.00
H      13.73      -2.66      10.09
C      16.91       6.82      16.43
C      16.14       6.77      15.15
C      14.77       6.49      15.14
C      14.07       6.39      13.94
C      14.75       6.58      12.73
C      16.11       6.91      12.73
C      16.80       6.98      13.93
C      12.91       5.85      11.34
C      12.84       5.42       9.86
C      13.04       6.65       8.97
C      11.90       8.71       8.57
C      12.95       9.16       7.76
C      12.85      10.42       7.18
C      11.72      11.23       7.38
C      10.67      10.75       8.19
C      10.76       9.50       8.78
C      11.56      12.54       6.74
C      13.96       4.40       9.56
C      14.17       2.05      10.10
C      15.10       1.78       9.07
C      15.47       0.46       8.83
C      14.93      -0.60       9.57
C      14.03      -0.31      10.61
C      13.66       1.00      10.88
C      15.34      -1.98       9.25
C      11.48       4.78       9.56
C      10.50       3.63       7.68
C      10.72       3.10       6.39
C       9.76       2.28       5.81
C       8.57       1.97       6.50
C       8.36       2.52       7.76
C       9.31       3.35       8.36
C       7.58       1.03       5.89
