17

H      13.63      11.23      12.97
O      16.77       7.57       9.87
S      11.22       7.40      12.93
S      14.81       8.98      11.48
O      15.68       5.56       9.76
C      10.21       9.58      14.28
C      12.48       9.70      13.05
C      13.56       6.69      11.36
C      15.80       6.78      10.13
C      11.31       9.05      13.47
C      14.71       7.33      10.95
C      12.74       7.55      12.13
C      13.29       8.83      12.28
O      12.77      10.99      13.35
H      13.35       5.65      11.11
O      10.29      10.80      14.64
O       9.26       8.76      14.53
