26

H      -0.85       8.46      12.45
H      -1.24       6.89       7.83
H      -3.16       6.47       9.85
H       1.07       8.88      10.43
C      -1.08       3.49      13.63
C      -1.00      11.86       6.65
C      -0.93       8.12      11.42
C      -1.16       7.23       8.86
C      -2.08       8.52      10.43
C      -0.01       6.83       9.85
C      -1.01      10.77       7.60
C      -1.08       4.58      12.68
C       0.13       8.33      10.30
C      -2.22       7.02       9.98
C      -0.99       8.75       9.28
C      -1.10       6.60      11.00
C      -0.98       9.84       8.38
C      -1.11       5.51      11.90
C      -3.12       9.44      10.73
C       1.03       5.91       9.55
N      -3.98      10.20      10.97
N       1.89       5.15       9.31
O       0.03       3.18      14.15
O      -2.12      12.17       6.13
O      -2.22       2.96      13.87
O       0.13      12.39       6.42
