48

C      12.90     -10.60      15.02
C      12.89     -11.41      16.14
C      10.47     -16.36      23.17
H      10.80     -10.24      19.93
C      10.48     -15.57      22.02
H      13.83     -11.74      16.59
H      13.83     -10.27      14.56
H      10.80     -16.75      18.23
H      12.57     -11.61      21.86
H      12.57     -15.38      16.30
H       9.54     -16.68      23.63
H       9.53     -15.26      21.56
O      12.82      -8.96      12.76
O      10.55     -17.94      25.46
O      10.55      -8.96      12.76
O      12.82     -17.94      25.46
C      10.47     -10.60      15.02
C      10.48     -11.41      16.14
C      12.90     -16.36      23.17
C      12.89     -15.57      22.02
C      11.68      -9.30      13.24
C      11.68     -10.18      14.45
C      11.68     -11.83      16.72
C      11.68     -12.69      17.94
C      11.68     -12.09      19.21
C      11.68     -10.59      19.37
C      11.68     -14.90      18.95
C      11.68     -16.40      18.79
C      11.68     -17.60      24.98
C      11.68     -16.75      23.75
C      11.68     -15.16      21.44
C      11.68     -14.30      20.22
C      11.68     -12.90      20.36
C      11.68     -12.26      21.73
C      11.68     -14.09      17.80
C      11.68     -14.73      16.43
H      12.57     -10.24      19.93
H      12.57     -16.75      18.23
H       9.54     -10.27      14.56
H       9.53     -11.74      16.59
H      10.80     -11.61      21.86
H      10.80     -15.38      16.30
H      13.83     -16.68      23.63
H      13.83     -15.26      21.56
H      11.68     -10.08      18.40
H      11.68     -16.91      19.76
H      11.68     -13.00      22.53
H      11.68     -13.99      15.63
