34

C      -4.27      10.90       7.29
C      -4.43      10.95       5.77
C      -4.09      10.24       2.51
C      -4.08       8.34       7.13
C      -3.46       9.65       7.70
C      -2.19      10.00       5.50
C      -3.67       9.77       5.08
H      -1.61      10.72       7.48
H      -1.92      11.03       5.25
S      -5.65       7.86       7.92
H      -5.23      10.89       7.79
H      -3.72      11.80       7.63
Cl      -6.15      10.94       5.25
H      -4.05      11.89       5.36
Cl      -0.97       8.51       7.54
H      -3.42       7.50       7.40
Cl      -1.10       8.99       4.52
H      -3.64       7.61       5.13
O      -2.38       7.74      11.77
H      -4.72       7.74       9.86
H      -5.25       8.31       5.27
O      -4.37      12.04       1.11
C      -3.84       9.94       3.65
C      -3.27       9.56       9.13
C      -2.96       9.40      10.29
C      -2.33       8.98      11.52
C      -4.64      10.83       1.32
O      -6.42       9.03       8.28
O      -6.26       6.84       7.11
O      -5.15       7.11       9.23
O      -5.42      10.08       0.61
O      -1.73       9.89      12.20
C      -4.21       8.42       5.59
C      -2.05       9.82       7.05
