20

H      -1.29       8.68      10.68
H       0.21       7.44       9.15
H       0.83       3.56      12.73
H      -2.01       4.24      13.67
H      -0.52       4.92      14.38
C      -2.12       7.90      13.18
C       1.20       4.97       9.41
C      -1.02       5.79      12.40
C      -1.41       7.11      12.15
C      -1.00       7.66      10.92
C      -0.17       6.95      10.05
C       0.22       5.62      10.31
C      -0.27       5.05      11.49
C      -0.17       3.87      12.40
C      -1.04       4.68      13.44
I      -1.10       2.02      11.72
O      -1.71       7.76      14.37
O      -3.09       8.66      12.81
O       0.99       3.74       9.07
O       2.18       5.68       9.03
