13

O      12.89      16.10       6.87
S      14.79      16.05      10.31
C      13.60      16.26       9.09
C      12.37      16.61       9.64
C      13.89      16.02       7.66
O      15.09      15.74       7.34
H      11.57      16.96      11.68
O      15.22      15.95      13.28
H      11.49      16.77       9.03
C      14.04      16.33      12.99
C      12.42      16.71      11.04
O      13.12      16.61      13.82
C      13.67      16.42      11.56
