16

O      10.24      10.73      14.65
O       9.21       8.69      14.52
S      11.19       7.34      12.92
S      14.77       8.94      11.49
C      10.16       9.51      14.27
C      12.44       9.63      13.05
C      13.52       6.63      11.35
C      11.27       8.99      13.47
C      14.67       7.29      10.95
C      12.70       7.48      12.12
C      13.25       8.77      12.28
C      15.77       6.74      10.13
O      16.73       7.54       9.86
O      15.66       5.52       9.77
H      13.32       5.59      11.09
Cl      12.89      11.25      13.38
