28

H       9.00       5.30      12.49
H       9.00       5.32      14.99
H      13.03       6.85      14.94
H       8.04       7.16      18.46
H      12.01       5.55      18.83
H      11.88       5.89      21.31
C       9.95       6.90      22.77
C      10.92       5.97      10.81
C      11.00       6.04      12.30
C       9.88       5.62      13.04
C       9.87       5.64      14.43
C      11.01       6.09      15.11
C      12.15       6.49      14.40
C      12.15       6.47      13.00
C       8.88       6.88      19.09
C      10.03       6.36      18.50
C      11.13       5.98      19.30
C      11.05       6.17      20.67
C       9.91       6.73      21.29
C       8.82       7.09      20.47
N      11.11       6.20      16.52
N       9.98       6.26      17.09
Cl      13.56       7.08      12.21
Cl       7.36       7.80      21.05
O      11.08       6.75      23.34
O      11.98       5.68      10.18
O       9.77       6.18      10.28
O       8.87       7.19      23.37
