42

O       7.64      -2.96       9.22
H       4.33       0.90       9.31
P       2.07      -0.95      10.26
O       8.55      -0.71       9.65
H       3.97       1.55       7.70
P       3.63      -5.81       6.90
O       6.07      -1.13      10.12
C       3.04      -1.07       7.70
P       7.27      -1.42       9.24
C       2.74      -2.30       7.07
C       3.80      -3.04       6.49
C       5.14      -2.60       6.59
H       2.17      -3.16      10.14
C       5.41      -1.36       7.22
H       2.86      -5.07       8.94
C       4.35      -0.56       7.71
H       6.85      -3.58       9.36
C       2.02      -0.33       8.54
H       0.98      -0.46       8.20
C       1.33      -2.80       6.95
H       2.20       0.75       8.56
C       3.48      -4.36       5.82
H       0.60      -2.14       7.43
C       6.29      -3.39       6.02
H       1.20      -3.79       7.40
C       6.83      -0.96       7.53
H       1.03      -2.89       5.89
C       4.59       0.82       8.25
H       4.13      -4.55       4.95
H       2.45      -4.38       5.43
O       1.47      -2.41      10.14
H       5.98      -4.31       5.54
O       3.47      -0.97      10.81
H       7.01      -3.67       6.80
O       1.08      -0.10      11.08
H       6.84      -2.79       5.27
O       5.04      -5.85       7.52
H       7.00       0.12       7.45
O       2.57      -5.60       8.07
H       7.57      -1.44       6.87
O       3.23      -7.02       6.11
H       5.62       1.15       8.17
