48

N       1.76      -6.66      17.69
O      -2.65      -2.11      16.98
H       2.62      -5.44      15.72
O      -1.00      -0.84      17.79
H       3.46      -8.67      14.73
O       1.43      -1.89      18.11
H       5.33      -9.40      13.32
O       2.20     -13.29       8.69
H       8.34      -7.64      13.03
O       3.82     -14.77       9.11
H       5.89      -8.40      10.98
O       6.26     -13.92       9.85
H       7.44     -11.80      10.72
H       2.78     -11.02       9.16
H       4.12      -9.11      10.02
H       6.92      -5.39      13.35
H       5.07      -4.68      14.84
H       1.45      -7.39      18.33
H       2.67      -4.14      17.91
H      -2.23      -4.51      17.33
H      -0.88      -6.58      17.44
C       2.89      -7.03      16.99
C       4.17      -6.64      14.93
C       4.23      -7.95      14.44
C       5.28      -8.36      13.64
C       6.29      -7.46      13.28
C       7.53      -9.09      11.89
C       5.86     -10.35      10.45
C       6.42     -11.62      10.38
C       5.67     -12.71       9.88
C       4.32     -12.48       9.46
C       3.81     -11.17       9.49
C       4.56     -10.11       9.95
C       3.39     -13.55       9.05
C       6.17      -6.11      13.67
C       5.12      -5.71      14.50
C       0.99      -5.49      17.62
C       1.60      -4.23      17.74
C       0.83      -3.05      17.80
C      -0.59      -3.16      17.58
C      -1.16      -4.45      17.48
C      -0.40      -5.60      17.53
C      -1.47      -2.00      17.44
S       3.77      -8.35      17.52
S       8.80     -10.13      12.13
N       3.17      -6.28      15.88
N       7.45      -7.88      12.58
N       6.48      -9.23      11.03
