30

C      14.55      11.60       9.83
C      10.20       9.14       9.84
C      20.26       9.14       9.81
C      15.91       6.67       9.83
C      18.06       7.92       9.84
C      12.40      10.34       9.86
C      18.76       9.13       9.81
H      18.63       6.99       9.87
C      18.06      10.34       9.79
H      16.47       5.73       9.84
C      16.66      10.37       9.81
C      13.80       7.89       9.82
C      15.94       9.13       9.82
H      13.99      12.54       9.84
C      14.52       9.13       9.83
C      16.66       7.89       9.83
C      13.80      10.37       9.84
C      15.91      11.60       9.82
C      14.55       6.67       9.82
H      11.83      11.27       9.88
C      11.70       9.13       9.84
H      18.63      11.27       9.77
H      11.83       6.99       9.78
H      16.47      12.54       9.81
H      13.99       5.73       9.81
C      12.40       7.92       9.81
O       9.62       8.03       9.58
O      20.84      10.24       9.55
O      20.84       8.03      10.08
O       9.62      10.24      10.11
