16

O      17.68      18.57      26.36
C      19.53      19.78      28.12
C      20.46      20.36      28.99
C      20.79      17.76      28.12
F      18.51      20.57      27.75
F      20.22      21.63      29.35
C      22.59      20.28      30.39
C      21.72      18.33      28.98
F      22.75      17.55      29.35
F      21.04      16.49      27.75
O      22.37      21.48      30.74
O      23.57      19.55      30.74
O      18.89      16.64      26.35
C      18.66      17.84      26.71
C      19.66      18.46      27.65
C      21.59      19.66      29.45
