36

C       3.63       6.89      11.95
C       9.20      11.18      13.98
C       4.77       7.43      15.83
C       8.07      10.64      10.11
O       5.03      12.57      17.87
O       7.80       5.55       8.02
O       7.30      12.45      17.92
O       5.53       5.52       8.08
O       4.80       6.77      12.80
H       2.98       7.69      12.32
H       3.12       5.92      12.02
H       3.92       7.08      10.91
O       4.51       8.54      14.93
O       8.31       9.53      11.00
O       8.02      11.30      13.13
H       9.84      10.37      13.61
H       8.91      10.97      15.02
H       9.72      12.14      13.92
H       5.69       7.61      16.39
H       4.83       6.49      15.27
H       3.92       7.41      16.52
H       8.01      11.58      10.67
H       7.14      10.47       9.54
H       8.92      10.66       9.42
C       6.16      12.20      17.41
C       6.67       5.85       8.53
C       5.47       8.74      13.97
C       7.36       9.33      11.96
C       6.30       9.88      14.08
C       6.52       8.19      11.85
C       7.25      10.18      13.07
C       5.58       7.90      12.86
C       6.21      10.71      15.22
C       6.62       7.36      10.71
C       6.68       6.65       9.73
C       6.15      11.41      16.21
