22

C      13.37       8.03      11.87
C      16.13       8.04      11.90
C      11.96       8.03      11.86
C      17.55       8.05      11.90
N      10.80       8.03      11.90
N      18.70       8.04      11.87
N      13.92       7.63       9.23
N      15.58       8.44      14.55
H      15.58       9.83      10.43
H      13.92       6.24      13.33
H      15.59       5.89      11.04
H      13.91      10.18      12.73
O      14.87       7.51       8.43
O      12.72       7.60       8.97
O      14.63       8.57      15.33
O      16.78       8.47      14.80
C      15.21       9.04      11.09
C      14.29       7.03      12.68
C      14.32       7.84      10.63
C      15.18       8.23      13.14
C      14.29       9.23      12.34
C      15.22       6.84      11.43
