32

N       4.36      23.69       0.86
N       2.31      23.69      -0.94
N       4.35      22.78      -0.09
H       1.37      26.32       1.50
N       2.32      24.60       0.01
H       5.28      21.03      -1.55
O       2.23      18.62      -5.76
O       4.46      28.79       5.65
O       4.50      18.50      -5.60
O       2.18      28.88       5.54
H       1.35      27.98       3.39
H       5.31      19.39      -3.45
H       5.34      25.08       2.66
H       1.34      22.31      -2.74
H       5.34      26.82       4.47
H       1.34      20.59      -4.57
C       3.36      18.93      -5.25
C       3.33      28.47       5.16
C       2.22      27.35       3.20
C       4.44      20.03      -3.27
C       2.23      26.42       2.17
C       4.43      20.94      -2.23
C       3.35      25.60       1.97
C       3.31      21.78      -2.04
C       4.47      25.73       2.81
C       2.20      21.65      -2.89
C       4.47      26.68       3.82
C       2.20      20.71      -3.91
C       3.34      27.49       4.03
C       3.33      19.91      -4.12
C       3.32      22.79      -0.97
C       3.35      24.59       0.90
