18

O      -3.16       7.53       3.66
O      -0.89       7.59       3.75
O      -0.08       3.20      -3.68
H      -3.45       4.62      -1.94
H       1.34       5.62       1.66
H       0.61       6.62       2.88
C      -1.24       3.41      -3.19
C      -2.00       7.27       3.18
C      -0.68       5.96       1.46
C      -2.50       4.70      -1.42
C      -1.87       6.56       1.93
C      -1.34       4.13      -1.91
C      -2.26       5.38      -0.21
C      -0.93       5.30       0.22
S      -3.23       6.32       0.87
S       0.05       4.42      -0.90
N       0.50       5.96       2.11
O      -2.36       3.06      -3.70
