30

O       6.36      10.88      17.94
O       3.84      15.43      17.94
H       4.14      11.88      14.30
H       6.06      14.43      14.30
H       5.08      10.81      12.27
H       5.12      15.50      12.27
H       7.50      10.25      12.16
H       2.70      16.06      12.16
H       8.97      10.72      14.10
H       1.23      15.59      14.10
H       8.03      11.75      16.16
H       2.17      14.56      16.16
H       6.44      10.84      18.94
H       3.76      15.47      18.94
C       5.50      12.53      16.58
C       4.70      13.79      16.58
C       6.02      11.90      15.36
C       4.18      14.41      15.36
C       5.20      11.63      14.25
C       5.00      14.68      14.25
C       5.73      11.04      13.11
C       4.47      15.27      13.11
C       7.09      10.72      13.05
C       3.11      15.59      13.05
C       7.92      10.99      14.15
C       2.28      15.32      14.15
C       7.39      11.57      15.30
C       2.81      14.75      15.30
N       5.71      12.07      17.78
N       4.49      14.25      17.78
