20

S      16.53       4.41       2.66
H      12.25       1.46       4.97
H      14.41       2.97       1.57
H      13.96       2.49       6.48
H      17.93       3.62       3.98
O      15.69       4.03       7.06
O      17.35       4.02       5.53
C      16.13       3.82       5.89
C      12.22       1.52       2.25
O      11.25       0.90       2.80
O      12.42       1.67       1.00
O      17.86       3.58       2.98
O      16.33       4.30       1.24
O      16.57       5.69       3.31
C      15.15       3.28       4.89
C      13.23       2.14       3.17
C      15.27       3.42       3.48
C      13.10       2.01       4.56
C      14.31       2.85       2.64
C      14.05       2.58       5.40
