22

O       7.57      10.07       2.88
O       7.11       8.13       1.78
H       4.16      12.23      -1.65
H       7.66       7.78       2.51
H       8.17      12.42      -3.36
O       6.31      13.54      -2.48
C       8.37      10.95      -0.05
O       7.80      11.83      -2.66
C       6.12      11.67      -1.00
C       4.73      11.65      -0.93
C       4.06      10.91       0.04
C       4.80      10.15       0.97
C       6.20      10.16       0.91
C       6.86      10.92      -0.06
C       2.56      10.97       0.02
C       7.03       9.47       1.96
C       6.74      12.47      -2.10
I       3.85       8.96       2.42
O       8.94       9.81      -0.09
O       2.01      10.79      -1.11
O       1.97      11.24       1.12
O       8.92      12.09       0.04
