22

C       4.12       3.98       0.11
C       4.27       4.69       1.34
C       3.98       4.71      -1.06
C       4.41       4.02       2.58
C       4.55       4.71       3.77
C       4.12       6.84       0.11
C       3.98       6.12      -1.05
C       4.27       6.13       1.34
C       4.42       6.79       2.58
C       4.55       6.11       3.77
C       4.04       2.48       0.02
O       2.89       1.97       0.01
C       4.03       8.34       0.03
O       5.16       1.85      -0.07
O       5.15       8.97      -0.09
O       2.88       8.85       0.05
F       3.82       6.75      -2.24
F       3.83       4.07      -2.24
F       4.42       8.14       2.62
F       4.69       6.78       4.93
F       4.68       4.04       4.94
F       4.41       2.67       2.63
