32

H       6.35       5.49      10.72
H       5.83       5.69      13.13
H       8.26       9.30      10.77
H       8.73      10.93      11.73
H      10.25      13.70      13.48
H      10.05      12.95      11.99
H       5.37       7.08      16.33
H       4.94       6.42      14.86
H       9.32      12.84      15.55
H       6.80       8.91      16.55
C       8.38      10.94      17.09
C       7.95       9.85      13.44
C       7.77       9.86      14.86
C       7.47       8.69      12.70
C       6.75       7.65      13.37
C       6.46       7.78      14.77
C       6.99       8.84      15.48
C       7.72       8.54      11.33
C       6.64       6.38      11.28
C       8.33      10.95      15.59
C       7.63       7.34       9.15
C       6.35       6.51      12.63
C       7.33       7.41      10.62
C       8.93      12.01      14.94
C       9.07      12.02      13.54
C       8.60      10.93      12.81
N       9.64      13.13      12.90
N       5.70       6.79      15.42
O       8.19      12.04      17.70
O       8.67       9.82      17.64
O       8.09       8.38       8.60
O       7.39       6.23       8.55
