36

O       7.20       8.90      18.67
O       9.47       8.90      18.65
H       6.21       8.88      20.92
H       5.01       8.88      23.07
H      10.48       8.88      20.81
H      10.62       8.87      27.62
H      11.81       8.87      25.47
O       7.36       8.87      29.89
O       9.63       8.88      29.87
H       6.35       8.87      27.73
H       4.00       7.99      25.42
H       4.68       8.87      26.79
H       4.00       9.76      25.42
H      12.82       7.99      23.12
H      12.15       8.88      21.75
H      12.82       9.76      23.12
C       8.34       8.90      19.25
C       8.49       8.88      29.29
C       7.15       8.89      21.46
C       7.16       8.88      22.86
C       5.95       8.88      23.62
C       9.58       8.88      21.42
C       9.65       8.88      22.82
C      10.90       8.87      23.55
C       9.67       8.87      27.08
C       9.66       8.87      25.67
C      10.87       8.87      24.92
C       7.25       8.88      27.12
C       7.18       8.88      25.72
C       5.92       8.88      24.99
C       8.35       8.89      20.75
C       8.41       8.88      23.56
C       8.47       8.88      27.79
C       8.41       8.88      24.98
C       4.59       8.87      25.70
C      12.23       8.87      22.84
