44

O       1.64      17.00      11.41
O       0.59       1.76      20.06
O      -0.99       0.80      21.30
O      -3.45       1.88      21.38
H      -0.00       3.93      19.17
H      -0.23       6.04      18.11
H      -2.99       7.41      18.32
H      -3.27       9.49      17.35
H      -2.48      11.45      16.10
H       1.41       9.61      15.74
H       0.62       7.66      17.00
H       1.12      11.67      14.76
H      -1.61      13.08      14.96
H      -1.82      15.13      13.76
H       2.94      15.02      12.39
H       2.04      13.22      13.81
H      -3.87       5.84      19.30
H      -4.75       3.94      20.60
C      -2.89       2.86      20.66
C      -1.53       2.87      20.24
C      -1.05       3.96      19.49
C      -1.85       5.05      19.14
C      -1.28       6.16      18.39
C      -1.94       7.30      18.02
C      -1.40       8.42      17.28
C      -2.24       9.52      17.00
C      -1.79      10.62      16.29
C      -0.46      10.69      15.82
C       0.38       9.59      16.10
C      -0.07       8.49      16.81
C       0.08      11.80      15.06
C      -0.56      12.94      14.68
C       0.02      14.01      13.89
C      -0.78      15.08      13.46
C      -0.29      16.11      12.64
C       1.08      16.08      12.22
C       1.89      15.02      12.69
C       1.38      14.02      13.49
C      -1.22      17.19      12.24
C      -3.20       5.01      19.56
C      -3.70       3.96      20.29
C      -0.59       1.77      20.53
O      -2.40      17.24      12.71
O      -0.81      18.07      11.39
