10

C       4.53      14.74       5.58
C       4.46      15.39       4.40
C       4.39      15.98       3.33
O       5.50      16.93       1.55
O       3.22      16.92       1.57
C       4.64      13.47       7.92
C       4.37      16.66       2.06
O       5.79      13.19       8.39
O       3.51      13.24       8.46
C       4.61      14.15       6.65
