40

C       0.75      12.67       2.45
C       1.02      14.04       2.70
C       2.20      14.39       3.36
C       3.11      13.41       3.81
C       2.81      12.06       3.57
C       1.66      11.67       2.89
C       4.29      13.78       4.48
C       5.32      14.10       5.07
C       6.50      14.47       5.74
C       6.75      15.81       6.09
C       7.91      16.20       6.75
C       8.88      15.21       7.10
C       8.64      13.84       6.76
C       7.46      13.50       6.09
H       2.43      15.44       3.54
H       3.51      11.29       3.92
H       6.01      16.56       5.82
H       7.28      12.46       5.83
C       0.12      15.17       2.26
C       1.44      10.19       2.68
C       8.03      17.67       7.05
C       9.57      12.69       7.06
O      10.93      14.67       8.19
O      10.35      16.85       8.02
H      -0.79      15.21       2.88
H      -0.22      15.05       1.22
H       0.65      16.13       2.35
H       1.58       9.91       1.63
H       0.42       9.88       2.94
H       2.14       9.62       3.30
H       7.12      18.19       6.71
H       8.89      18.12       6.53
O      -0.45      11.25       0.97
H       8.17      17.87       8.12
O      -1.55      12.99       1.93
H       9.16      11.77       6.64
H       9.71      12.55       8.14
H      10.58      12.85       6.64
C      10.13      15.60       7.81
C      -0.50      12.28       1.74
