24

N      21.66      27.72      15.16
N      26.03      24.52      13.66
N      23.08      26.64      17.06
N      24.58      25.55      11.76
O      22.61      27.13      11.06
O      21.17      27.94      12.59
O      26.39      24.12      16.22
O      25.19      25.25      17.76
H      21.18      28.20      14.40
H      21.88      28.30      15.97
H      26.64      24.21      14.41
H      26.52      24.91      12.85
H      23.60      26.14      17.78
H      22.07      26.64      17.17
H      23.95      25.89      11.03
H      24.89      24.59      11.65
C      22.23      27.28      12.28
C      25.45      24.94      16.53
C      23.05      26.69      13.36
C      24.63      25.53      15.45
C      22.73      26.94      14.73
C      24.96      25.31      14.08
C      23.50      26.34      15.76
C      24.17      25.85      13.05
