16

S      11.05       7.29      12.93
S      14.64       8.92      11.49
C      10.01       9.48      14.26
O      16.61       7.55       9.87
C      12.28       9.59      13.04
C      13.42       6.62      11.39
C      11.12       8.95      13.46
C      14.58       7.26      10.97
C      12.57       7.46      12.15
C      13.12       8.75      12.28
C      15.68       6.72      10.16
O      15.62       5.49       9.83
F      12.58      10.86      13.30
F      13.11       5.34      11.13
O      10.14      10.67      14.71
O       9.02       8.69      14.44
