33

O       7.54      12.42       7.99
O       8.10      11.85       5.84
H       7.19      12.16       5.66
O      10.05      14.54       8.01
O      10.61      13.97      10.15
H      10.43      14.92      10.30
O      14.28       9.81       8.02
O      13.63       9.99      10.19
H      14.53       9.64      10.34
C      10.88      11.03       9.41
C      11.85      11.84       7.57
C      10.65      12.29       8.48
C      10.90      11.01       5.22
C      10.85      11.03      10.82
C      10.92      11.00       2.57
C      10.80      11.02      13.47
C       9.90      10.21       8.47
C       9.68      11.48       7.55
C      10.93      11.00       4.01
C      10.81      11.01      12.04
C      11.11       9.77       7.57
C      10.88      11.02       6.63
C      12.09      10.59       8.49
C       8.33      11.98       7.16
C      10.39      13.71       8.84
C      13.45      10.09       8.86
I       8.37       8.97       9.19
I      13.36      13.12       6.85
I      11.46       7.82       6.87
O      10.86       9.86       2.00
O      10.99      12.14       2.00
O       9.67      10.80      14.04
O      11.92      11.24      14.04
