51

C       2.59       9.57       2.06
C       2.99       8.80       3.17
C       3.69       9.34       4.23
C       1.48       7.28      -1.56
C       1.61       6.56      -2.73
C       1.63       8.62      -3.96
C       1.49       9.36      -2.79
C       1.50       8.69      -1.53
C       2.05       8.89       0.90
C       1.70       9.43      -0.30
C       1.78       7.22      -3.96
H       2.56       4.35      -4.54
H       3.79      12.57       3.16
H       1.64       5.47      -2.69
H       1.69       9.16      -4.91
H       1.70      10.52      -0.38
H       2.77       7.72       3.17
H       1.40       6.73      -0.61
H       4.02       8.70       5.05
H       2.06       7.80       0.98
H       2.56      11.60       1.29
C       1.44      10.87      -2.89
C       2.84      11.52      -2.84
H       2.40       8.04      -6.81
C       5.56       9.06       8.20
C       4.93       7.72       8.54
N       3.15       4.93      -6.48
N       3.10       6.09      -7.19
N       6.26      11.51       7.09
H       3.35      11.28      -1.90
H       3.46      11.15      -3.66
H       2.77      12.61      -2.93
H       0.96      11.14      -3.84
H       0.81      11.29      -2.10
N       6.38      12.65       6.31
O       5.03       9.47       6.93
H       5.30       9.81       8.97
H       6.66       8.97       8.13
H       5.55      13.29       4.48
H       5.15       6.98       7.75
H       5.34       7.34       9.48
H       3.84       7.81       8.63
C       5.59      12.51       5.23
C       4.92      11.27       5.25
C       2.62       5.16      -5.26
C       2.21       6.50      -5.16
C       2.54       7.04      -6.42
C       5.40      10.69       6.46
C       4.05      10.70       4.24
C       3.57      11.50       3.17
C       2.86      10.95       2.11
