17

O      10.02       6.75       3.93
C      10.30       6.42       2.72
C       6.66      10.15      -2.69
O       6.89       9.80      -3.90
O       5.81      11.04      -2.31
O      11.10       5.50       2.36
H       6.62      10.36       0.17
O      10.54       6.09      -0.32
S       8.49       8.42       2.10
S       8.54       8.21      -2.08
H      10.49       6.22      -1.28
C       9.73       7.00       0.28
C       7.29       9.63      -0.27
C       9.62       7.16       1.66
C       7.40       9.45      -1.63
C       8.14       8.74       0.44
C       8.89       7.91      -0.42
