38

C       4.16      22.85      22.51
C       9.15      26.68      25.11
O       5.73      27.63      30.31
O       8.29      18.30      20.50
O       7.97      27.41      30.58
O       6.04      18.34      20.38
H       3.43      22.12      22.15
H       4.78      23.21      21.68
H       3.65      23.70      22.98
H       9.25      27.57      25.75
H       8.27      26.79      24.45
H      10.06      26.56      24.51
O       4.98      22.30      23.56
O       9.03      25.48      25.89
F       8.97      27.15      28.06
F       5.08      20.61      21.28
F       9.12      18.69      23.00
F       4.92      25.11      29.55
F       7.05      21.62      26.66
F       7.05      24.23      24.23
F       4.99      23.45      27.45
F       9.02      20.37      25.07
C       6.87      27.16      30.00
C       7.15      18.68      20.89
C       6.92      26.22      28.84
C       7.11      19.62      22.06
C       7.95      26.27      27.90
C       6.07      20.55      22.22
C       7.99      25.44      26.77
C       5.99      21.43      23.31
C       6.98      24.47      26.61
C       7.01      21.36      24.29
C       5.97      24.37      27.57
C       8.04      20.43      24.14
C       5.92      25.25      28.66
C       8.10      19.57      23.05
C       7.00      23.59      25.44
C       7.00      22.25      25.45
