24

O       6.47       8.86       2.08
O       4.84      10.19       1.28
H       9.00      11.93       4.87
O       3.27      16.45       0.54
H       8.10       9.98       3.55
O       3.00      18.23       1.95
H       5.16      12.60       1.86
H       4.63      14.68       1.62
H       4.97      18.55       3.41
H       6.82      17.65       4.87
C       8.16      12.04       4.19
C       7.66      10.97       3.46
C       6.55      11.16       2.63
C       6.02      12.45       2.51
C       6.57      13.50       3.25
C       6.09      14.88       3.22
C       5.09      15.33       2.35
C       4.67      16.66       2.43
C       5.29      17.51       3.34
C       6.30      17.02       4.15
C       5.90       9.99       1.93
C       3.54      17.17       1.55
N       7.62      13.28       4.11
N       6.69      15.72       4.11
