20

N      15.72       9.83       4.62
N      20.67      13.08       3.03
C      15.46      12.75       6.10
C      21.12      10.04       1.94
O      14.70      11.93       6.70
O      15.45      14.02       6.21
O      20.83       8.97       1.31
O      22.26      10.61       2.03
C      16.67      10.94       4.65
C      19.83      11.91       3.23
C      16.51      12.20       5.21
C      19.99      10.64       2.68
C      18.64      12.01       3.99
C      17.91      10.82       3.97
O      16.24       8.71       4.46
O      14.51      10.06       4.68
O      20.63      13.93       3.94
O      21.32      13.19       1.98
S      17.85      13.25       4.89
S      18.69       9.58       3.08
