28

H       4.17      11.08       5.73
H       3.89       9.13       7.24
H       0.17      10.42       4.24
H       0.43      12.89       4.72
H       4.20      13.56       1.58
C       1.85       7.52       7.55
C       3.23      10.52       5.73
C       3.07       9.44       6.59
C       1.88       8.69       6.63
C       0.83       9.07       5.77
C       0.99      10.16       4.92
C       2.18      10.89       4.88
C       1.26      13.02       4.02
C       1.28      14.13       3.19
C       2.35      14.38       2.32
C       3.37      13.42       2.26
C       3.33      12.27       3.06
C       2.28      12.06       3.98
C       2.45      15.59       1.46
N       0.10      15.01       3.31
Cl      -0.66       8.22       5.66
Cl       4.57      11.09       2.84
O       2.98       7.09       7.98
O       0.72       7.04       7.89
O       3.59      15.90       0.99
O       1.37      16.22       1.23
O      -0.76      14.93       2.43
O       0.01      15.71       4.33
