14

C      14.31      -2.76       6.30
O      13.94      -3.90       6.71
O      15.40      -2.16       6.63
H      11.68      -3.05       5.92
C      12.12      -2.30       5.24
C      13.43      -2.03       5.35
C      11.23      -1.65       4.30
C      11.57      -1.42       3.01
C      10.65      -0.82       2.02
O       9.62      -0.17       2.45
O      10.95      -1.00       0.79
H      13.90      -1.23       4.79
H      10.22      -1.40       4.62
H      12.52      -1.77       2.61
