14

C       8.96       7.18      13.83
N       8.37       5.48      11.83
N      11.22       5.47      11.90
H       8.57       4.12      10.26
H      11.10       4.13      10.31
H      11.06       8.09      13.66
H       8.44       6.79      14.72
H       8.52       8.14      13.55
H      10.99       6.72      14.80
C       9.08       6.19      12.69
C       9.12       4.73      10.98
C      10.52       4.73      11.01
C      10.48       6.18      12.73
C      10.55       7.15      13.89
