30

C       0.52       8.20      22.36
H      -0.01       5.81      19.99
H       0.03      11.21      19.56
C       0.77       8.34      23.74
H       1.72      10.80      19.28
H       0.47      10.16      18.18
C      -0.22       7.54      17.02
C       0.08       7.73      18.19
C       1.63       8.70      26.21
C       0.55       9.20      20.10
C       0.64       9.33      21.50
C       0.70      10.40      19.23
C       1.06       8.46      24.92
H      -1.02      11.15      22.54
C       0.00      11.15      22.94
H       0.35      12.18      23.08
H       0.04      10.62      23.89
C       0.09       5.72      22.70
O       2.42       7.79      26.66
H      -0.38       5.99      23.65
H      -0.52       4.95      22.20
H       1.06       5.25      22.94
O      -1.62       7.98      15.22
O      -0.38       6.07      15.25
O       0.91      10.59      21.96
C      -0.76       7.19      15.73
O       1.37       9.81      26.80
C       0.27       6.92      21.81
C       0.19       6.79      20.43
C       0.31       7.91      19.57
