28

Br      19.09      16.95       2.99
Br      16.12      11.81       2.98
Br      12.23      20.92       8.59
Br       9.26      15.77       8.59
H      16.80      17.33       4.52
H      14.65      13.60       4.52
H      13.69      19.12       7.06
H      11.54      15.40       7.06
O       8.67      18.24       9.82
O       9.80      20.19       9.82
C       9.65      18.97       9.48
C      18.70      13.75       2.09
C      17.63      14.36       2.96
C      17.69      15.72       3.40
C      16.71      16.29       4.21
C      15.60      15.54       4.62
O      19.67      14.49       1.76
C      16.49      13.63       3.40
O      18.55      12.53       1.76
C      15.50      14.20       4.21
C      14.60      16.11       5.43
C      13.74      16.61       6.14
C      12.74      17.19       6.95
C      12.84      18.53       7.37
C      10.65      17.00       8.17
C      11.63      16.43       7.37
C      10.71      18.36       8.61
C      11.86      19.09       8.17
