82

H       8.24       8.96      23.77
H      10.12       4.32      17.75
H       8.87       7.94      37.47
H       9.67       4.37      20.21
H       9.47       8.04      35.04
H      12.14       3.55      24.53
H       7.39       9.29      30.60
H      11.73       3.55      26.97
H       7.79       9.28      28.16
H      11.19       3.44      28.84
H       7.85       9.07      26.21
H       5.11       2.36      38.72
H       5.38       1.52      37.18
H       6.43       1.18      38.58
H       7.63       2.70      36.97
H       7.31       3.54      38.49
H       5.28       4.61      37.47
H       5.60       3.75      35.95
H      14.80      10.11      17.75
H      16.11       8.95      17.48
H      14.79       9.12      16.28
H      14.49       7.99      19.14
H      14.45       7.03      17.65
H      12.46       8.38      16.87
H      12.44       9.21      18.43
H       6.96       4.63      34.32
H      11.96       7.99      20.53
H      10.70       3.49      31.27
C      10.92       5.27      24.16
C       7.54       6.27      37.25
C      11.34       6.09      17.78
C      10.45       5.29      26.96
C       8.87       7.41      28.14
C       9.07       7.35      26.69
C      10.16       5.29      28.39
C       9.87       6.31      26.13
C       9.39       6.36      28.95
C      11.26       4.32      26.36
C       8.17       8.46      28.75
C      11.50       4.31      24.98
C       7.94       8.47      30.13
C       7.20       6.32      38.71
C      11.64       5.97      16.31
C      10.61       4.27      29.25
C       8.49       8.28      25.81
C       9.13       6.37      30.36
C       9.33       5.30      32.63
C       9.71       7.22      22.42
C       8.09       7.46      32.38
C      11.19       5.22      22.70
C       8.79       7.28      35.42
C      10.27       5.14      19.74
C       8.45       7.22      36.77
C      10.10       6.27      24.72
C      10.53       5.12      18.37
C       6.98       5.31      36.37
C      11.87       7.15      18.54
C       7.36       5.37      35.02
C      11.58       7.18      19.91
C       8.24       6.34      34.55
C      10.81       6.18      20.50
C       6.08       4.20      36.83
C       6.82       3.10      37.60
C       5.89       1.98      38.05
C       9.61       5.32      31.18
C      12.70       8.26      17.94
C      14.22       8.02      18.07
C      15.03       9.10      17.36
C       9.50       7.25      23.88
C      10.34       4.29      30.62
C       8.70       8.23      24.43
C       8.40       7.44      30.94
N       8.57       6.37      33.15
N      10.56       6.21      21.92
O       9.18       8.03      21.66
O      11.93       4.38      22.19
O       7.45       8.37      32.91
O       5.97       6.19      39.03
O      12.87       5.98      15.99
O       8.16       6.52      39.52
O      10.65       5.84      15.52
O       9.74       4.40      33.37
