24

O      13.20       9.59       7.14
O      14.36      10.31      18.18
H      15.12       9.92      15.87
H      10.91      10.70      16.26
H      10.18       9.94       9.74
H      14.47       9.89       9.29
H      10.65      10.57      13.77
H      14.87       9.81      13.38
C      12.13       9.66       7.82
C      13.19      10.42      17.70
C      13.03      10.33      16.21
C      12.75      10.20      13.42
C      14.15      10.06      15.40
C      11.77      10.50      15.62
C      12.30       9.86       9.29
C      11.20       9.97      10.15
C      13.56       9.96       9.89
C      12.59      10.13      11.96
C      11.63      10.43      14.24
C      14.01      10.00      14.02
N      11.33      10.09      11.47
N      13.71      10.11      11.21
O      12.12      10.62      18.38
O      10.94       9.55       7.38
