27

C       9.70       0.48      26.34
H      11.95       1.60      19.88
H      11.85       1.30      22.35
H       7.66       2.10      19.78
C       6.87       0.59      23.07
C       5.52       0.88      23.65
O       8.64       3.24      15.33
O      10.82       0.01      26.69
O       8.59       0.38      26.99
H       7.60       0.38      23.86
H       6.86      -0.27      22.38
H       4.80       1.12      22.86
H       5.15       0.00      24.20
H       5.57       1.72      24.35
O      10.91       3.39      15.24
O       7.28       1.76      22.30
C       9.88       2.46      17.10
C      11.00       1.65      20.40
C      10.94       1.47      21.77
C       8.51       1.72      21.72
C       8.58       1.93      20.34
C       9.82       1.90      19.67
C       9.71       1.52      22.46
C       9.69       1.34      23.86
C       9.87       2.17      18.29
C       9.66       1.12      25.06
C       9.79       3.05      15.80
