34

H       2.89      16.97       5.35
H       9.16      13.37       6.00
H       3.19      18.22       6.61
H       9.02      12.31       4.56
H       7.56      16.65       9.09
O       4.50      18.81       9.88
H       4.69      14.01       2.06
O       6.75      18.71      10.09
H       8.88      15.39       8.79
H       3.10      14.80       2.66
O       7.80      11.93       1.21
O       5.60      12.00       0.93
O       3.68      18.26       7.45
O       8.51      12.29       3.73
O       9.09      14.77       8.06
C       5.63      18.38       9.54
O       2.96      15.54       3.28
C       6.65      12.33       1.58
C       4.72      17.39       7.38
C       7.46      13.14       3.83
C       5.71      17.42       8.39
C       6.51      13.18       2.78
C       6.81      16.57       8.30
C       5.38      13.99       2.90
C       6.98      15.68       7.23
C       5.16      14.79       4.03
C       5.98      15.65       6.20
C       6.14      14.80       5.07
C       4.84      16.49       6.29
C       7.30      13.97       4.98
C       8.11      14.80       7.11
C       3.98      15.59       4.19
C       3.83      16.42       5.28
C       8.26      13.98       6.03
