14

O       1.14       4.45       2.86
O      -3.46       8.45      -2.86
C      -0.01       4.77       2.39
C      -2.31       8.13      -2.39
H       0.98       5.93       0.81
C      -0.00       5.64       1.19
C      -2.32       7.27      -1.19
H      -3.30       6.97      -0.81
H      -2.10       5.70       1.01
C      -1.14       6.03       0.59
C      -1.17       6.87      -0.59
H      -0.22       7.20      -1.01
O      -1.18       8.48      -2.86
O      -1.13       4.42       2.86
