36

N       1.57       6.94      20.56
N       1.06       6.92      22.80
O       3.33       2.77      17.96
O       3.74       3.64      15.94
O       1.83       8.65      28.46
O       0.78       9.83      26.84
O       4.18       8.58      15.41
O       2.79       9.81      16.71
O       1.78       3.69      27.92
O       1.63       2.78      25.89
O       2.03       5.05      21.83
C       3.43       3.76      17.18
C       3.15       5.16      17.67
C       3.45       6.25      16.85
C       3.12       7.54      17.27
C       2.49       7.73      18.50
C       2.21       6.64      19.34
H       1.30       7.91      20.64
C       3.39       8.72      16.39
H       3.91       6.08      15.88
H       0.83       7.89      22.61
H       2.34       4.48      19.56
C       1.60       6.19      21.74
C       2.54       5.34      18.92
H       2.24       8.75      18.81
C       1.30       7.56      26.42
C       1.19       6.64      24.17
C       1.13       7.73      25.04
H       0.99       8.75      24.66
C       1.49       6.27      26.94
H       1.60       6.12      28.01
C       1.36       5.35      24.69
C       1.50       5.18      26.07
C       1.65       3.79      26.64
C       1.30       8.76      27.32
H       1.40       4.48      24.03
