34

H       3.40       5.78      21.88
H       2.84       6.70      23.33
H       4.48       5.97      23.31
H       8.85       7.81      23.77
H       9.46       6.43      22.83
H       9.90       8.07      22.34
H       8.73       5.83      18.74
H       9.74       5.49      20.18
H      10.44       6.32      18.76
C       5.65       8.24      26.29
C       3.70       6.46      22.70
C       9.08       7.47      22.75
C       9.54       6.20      19.37
C       4.35       7.81      19.29
O       4.91       7.43      26.97
O       7.46       6.04      15.46
O       8.32       8.12      15.03
O       4.17       7.71      22.16
O       9.23       7.50      19.91
H       3.41       7.83      19.87
H       4.40       8.73      18.68
H       4.32       6.97      18.59
C       7.68       7.25      15.75
O       5.95       9.43      26.60
C       7.24       7.66      17.06
C       5.54       7.71      20.20
C       5.42       7.64      21.58
C       7.87       7.54      21.88
C       7.98       7.56      20.49
C       6.85       7.68      19.65
C       6.56       7.59      22.42
C       6.36       7.66      23.82
C       7.04       7.71      18.26
C       6.12       7.79      25.01
