26

H      10.88      14.02      18.24
H      10.23      13.38      19.76
H      11.80      11.65      19.68
H      12.45      12.31      18.18
H      12.70      12.41      21.90
H      14.01      13.58      21.99
H      11.15      14.17      21.97
H      12.48      15.33      22.02
H      12.76      15.72      18.30
H      13.41      16.28      19.84
H      14.98      14.54      19.82
H      14.35      14.00      18.27
O       9.70      15.87      20.85
O      10.81      16.97      19.20
O      14.19      10.80      20.61
O      15.53      12.00      19.22
C      10.67      16.02      20.03
C      14.48      11.84      19.93
C      11.15      13.71      19.26
C      12.20      12.56      19.22
C      13.48      12.99      19.97
C      13.10      13.32      21.43
C      12.07      14.48      21.46
C      11.73      14.93      20.03
C      13.01      15.39      19.32
C      14.06      14.25      19.30
