24

H       0.16       6.33       9.72
H      -3.61       5.00       4.51
H      -2.26       4.07       3.92
H      -3.22       7.19       9.15
H      -2.47       7.20      10.63
H      -3.60       4.63      10.16
H      -2.19       3.78      10.37
H      -0.06       3.38       9.82
H       0.07       4.34      11.16
H      -0.45       5.01       3.69
H       1.12       4.81       4.41
C      -0.51       5.19       7.95
C      -0.50       4.91       5.70
C      -1.96       4.96       5.72
C      -1.87       5.29       7.96
C      -1.96       5.61       9.46
C      -0.34       5.39       9.45
N       0.24       5.05       6.83
N      -2.65       5.21       6.85
N      -2.59       4.82       4.52
N      -2.34       6.99       9.64
N      -2.61       4.71      10.40
N       0.25       4.29      10.16
N       0.09       4.72       4.49
