22

H       9.97       8.66      10.24
H       9.75      13.62      10.20
H       6.06      12.23       7.47
H       6.10       9.73       7.59
C       7.92       8.15       8.58
C       7.85      13.93       8.39
C       7.90       9.64       8.72
C       8.92      10.37       9.42
C       6.87      10.31       8.09
C       9.93       9.74      10.19
C      10.87      10.48      10.89
C       7.85      12.46       8.62
C       6.85      11.71       8.02
C       8.88      11.81       9.38
C       9.82      12.53      10.15
C      10.81      11.90      10.87
Br      12.20       9.57      11.87
Br      12.04      12.97      11.84
O       6.78       7.57       8.55
O       6.71      14.50       8.36
O       8.97      14.51       8.24
O       9.04       7.57       8.46
