28

H       8.81       6.20      12.34
H       8.70       6.43      14.85
H      12.99       6.49      15.02
H      13.09       6.26      12.50
H       7.69       6.70      18.50
H      11.98       6.75      18.67
H      11.87       6.99      21.18
H       7.58       6.92      21.02
C       9.67       7.12      22.72
C      11.00       6.06      10.80
C      10.96       6.21      12.29
C       9.71       6.26      12.94
C       9.65       6.39      14.32
C      10.84       6.47      15.07
C      12.09       6.42      14.41
C      12.14       6.30      13.03
C       8.59       6.76      19.11
C       9.83       6.72      18.45
C      11.03       6.79      19.20
C      10.96       6.92      20.57
C       9.72       6.97      21.23
C       8.53       6.88      20.49
N      10.90       6.59      16.47
N       9.77       6.60      17.05
O      10.79       7.29      23.31
O      12.15       6.10      10.24
O       9.89       5.89      10.21
O       8.53       7.08      23.28
