30

C       2.00      -8.09      18.23
C       2.00      -8.16      16.84
C       1.99      -7.00      16.03
C       1.99      -5.77      16.70
Cl       2.03     -10.11      25.75
Cl       1.96      -4.67      25.45
H       1.99      -5.37      22.78
H       2.00      -9.70      23.01
Cl       1.96      -9.73      16.11
H       1.99      -9.02      18.79
H       2.00      -8.73      20.89
H       2.00      -5.66      20.68
C       2.00      -7.09      14.53
O       1.05      -6.50      13.91
O       1.05      -7.89      27.65
O       2.94      -7.74      13.98
Cl       2.03      -4.29      15.81
O       2.94      -6.66      27.59
C       2.00      -7.31      27.04
H       2.00      -4.70      18.56
C       1.99      -7.39      25.54
C       2.00      -6.24      24.73
C       2.00      -6.31      23.34
C       2.00      -7.55      22.69
C       1.99      -8.71      23.48
C       1.99      -8.63      24.87
C       2.00      -7.70      21.24
C       2.00      -6.70      20.33
C       1.99      -5.69      18.09
C       2.00      -6.85      18.88
