54

C       8.04      17.30      18.01
C       7.38      17.65      16.85
C       6.49      18.75      16.82
C       6.30      19.50      17.96
C       2.95      26.98      20.10
C       3.75      25.87      20.33
C       3.23      24.59      20.09
C       1.90      24.50      19.66
C       1.16      25.67      19.49
C       5.88      21.16      20.33
C       6.27      22.37      19.77
C       5.39      23.47      19.71
C       4.11      23.40      20.24
C       3.69      22.21      20.89
C       4.58      21.07      20.91
C       4.13      19.88      21.54
C       2.91      19.80      22.17
C       2.09      20.95      22.21
C       2.45      22.12      21.58
N      10.75      14.10      20.90
N       1.68      26.89      19.69
Cl       7.63      16.73      15.40
H       7.72      15.14      19.87
H       9.07      13.10      20.21
H      11.10      17.43      21.29
H       8.85      18.28      22.46
H       8.72      16.45      18.00
H       5.98      18.99      15.89
H       5.63      20.35      17.93
H      12.34      15.26      21.52
O       7.32      20.46      22.60
O       7.54      22.47      19.26
H       4.75      26.01      20.72
H       5.71      24.39      19.21
H       1.44      23.54      19.43
H       3.34      27.98      20.26
H       0.11      25.64      19.19
H       1.80      22.99      21.65
H       4.79      19.01      21.52
H       2.60      18.89      22.68
H       7.92      20.15      23.30
H       7.70      23.40      18.99
Cl       0.58      20.90      23.08
C       9.49      14.07      20.44
C       8.74      15.23      20.25
C       9.30      16.48      20.57
C      10.61      16.49      21.05
C      11.31      15.29      21.19
C       8.50      17.71      20.43
C       8.34      18.54      21.53
C       7.50      19.67      21.49
C       6.80      20.00      20.34
C       6.98      19.19      19.17
C       7.84      18.05      19.20
