26

C       6.40       1.86       3.94
C       6.63       1.08       2.79
H       5.02      -0.59       5.90
C       6.30      -0.27       2.77
H       5.58       1.83       5.95
C       6.76       3.29       3.96
H       7.10       1.54       1.92
C       6.66       4.08       2.80
H       6.50      -0.88       1.88
C       7.01       5.42       2.82
H       6.27       3.63       1.88
C       7.47       6.02       3.99
C       7.58       5.25       5.16
H       6.92       6.03       1.92
O       5.59      -2.97       2.77
C       7.23       3.90       5.14
O       5.07      -2.89       4.98
H       7.34       3.31       6.05
C       7.84       7.48       4.00
H       7.96       5.72       6.07
O       7.75       8.09       2.89
O       8.21       7.99       5.11
C       5.43      -2.35       3.88
C       5.74      -0.89       3.89
C       5.48      -0.11       5.03
C       5.81       1.24       5.06
