34

N       5.29      12.79      30.04
N       4.80      11.61      30.55
H       9.63      16.13      42.37
H      12.53      18.45      40.13
N      17.75       6.19      35.64
N      17.06       5.57      36.66
N      11.45      12.22      36.18
H       5.38      10.35      32.16
H       6.91      14.06      30.53
H      15.30       6.03      37.75
H      17.47       8.00      34.56
C      10.33      16.87      42.00
C      11.09      16.85      40.80
C      11.82      18.06      40.85
C       5.58      11.25      31.59
C       6.60      12.21      31.77
C       6.36      13.15      30.76
C      15.99       6.33      36.97
C      15.97       7.48      36.16
C      17.11       7.33      35.34
C      11.14      15.86      39.82
C      11.23      15.00      38.95
C      11.32      14.04      38.00
C      11.42      13.17      37.15
C       7.63      12.21      32.72
C       8.54      12.22      33.54
C       9.55      12.22      34.44
C      10.47      12.20      35.25
C      15.03       8.52      36.16
C      14.20       9.42      36.16
C      13.27      10.40      36.16
C      12.42      11.28      36.17
N      11.53      18.72      41.98
N      10.60      17.99      42.69
