18

N       4.49      -0.83       6.46
C       1.56       2.61       6.03
N      -0.08       0.26       3.85
N       5.35      -0.07       7.10
C       0.88       1.80       5.02
H       3.11       5.14       8.41
N      -0.44       1.41       3.35
N       4.80       1.14       7.27
C       2.65       4.43       7.72
H       0.96       5.66       7.10
N       0.13       2.40       4.07
N       3.26       3.26       7.56
C       1.47       4.70       7.02
C       3.58       1.11       6.71
N       0.95       3.81       6.19
N       3.37      -0.12       6.21
C       2.74       2.32       6.75
N       0.76       0.47       4.89
