64

H       2.72       5.14       9.79
H       6.80       5.91      -9.80
H       2.71       5.07       7.28
H       6.81       6.00      -7.29
H       4.28       2.12       3.44
H       4.85       8.81      -3.44
H       2.64       4.86      -9.75
H       6.95       5.85       9.76
H       2.65       4.90      -7.24
H       6.95       5.81       7.25
H       4.68       2.10      -3.45
H       5.32       8.75       3.45
H       4.66       2.06      -0.97
H       5.28       8.81       0.97
H       4.30       2.08       0.96
H       4.90       8.84      -0.96
C       4.80       5.44       2.86
C       4.77       5.45      -2.86
C       4.62       4.23       3.57
C       4.80       6.68      -3.57
C       4.43       3.04       2.87
C       4.84       7.88      -2.87
C       4.99       6.65       3.57
C       4.73       4.23      -3.57
C       4.84       5.50       9.92
C       4.72       5.38      -9.92
C       4.70       4.20      -0.74
C       4.93       6.69       0.73
C       4.86       6.69      -0.73
C       4.64       4.20       0.73
C       4.78       5.45      -1.43
C       4.79       5.44       1.43
C       4.68       3.02      -1.48
C       5.14       7.85       1.48
C       4.70       3.03      -2.88
C       5.17       7.84       2.87
C       4.84       5.55      11.42
C       4.72       5.33     -11.42
C       4.45       3.03       1.47
C       4.87       7.88      -1.47
C       4.62       4.20       5.05
C       4.78       6.71      -5.05
C       5.00       6.67       5.05
C       4.72       4.21      -5.05
C       6.03       5.65       7.81
C       3.55       5.14      -7.81
C       6.03       5.68       9.20
C       3.55       5.11      -9.20
C       3.64       5.28       9.22
C       5.90       5.70      -9.23
C       3.63       5.24       7.83
C       5.90       5.74      -7.84
C       4.83       5.44       7.14
C       4.73       5.45      -7.14
N       4.82       5.43       5.69
N       4.74       5.46      -5.70
O       3.70       5.55      12.00
O       5.85       5.36     -12.00
O       5.97       5.61      11.99
O       3.58       5.25     -11.99
O       4.46       3.16       5.69
O       4.79       7.76      -5.70
O       4.71       3.16      -5.70
O       5.16       7.71       5.69
