33

Cl       4.75      10.52       8.10
H      -6.55      15.21       6.88
Cl      -1.89      15.17       7.49
H       0.95      13.14       8.63
O       0.13      12.61       8.67
H      -6.89      11.20       8.51
H      -1.71      10.63       7.56
H      -0.26      10.42       5.12
H      -2.00      12.34       3.95
H      -0.27      14.42       4.80
C      -7.01      12.24       8.22
C      -6.19      13.04       7.39
C      -1.38      13.68       6.75
C      -0.44      12.60       7.42
C       2.97      12.74       6.36
C      -4.93      12.74       6.86
C      -0.60      13.57       5.41
C       0.38      12.51       6.05
C      -1.55      12.41       4.94
C      -2.37      12.52       6.29
C      -0.59      11.35       5.59
C      -1.38      11.46       6.94
C       1.79      12.59       6.08
C      -3.77      12.57       6.50
C       5.15      14.04       6.54
C       4.31      12.92       6.74
C       5.13      12.07       7.51
C      -6.84      14.29       7.38
N       6.33      13.87       7.15
N       6.31      12.64       7.77
N      -7.93      14.24       8.16
N      -8.04      12.98       8.67
Cl       4.80      15.46       5.68
