40

H      27.06      17.93      18.52
H      27.92      19.95      14.84
H      27.06       9.70      13.99
H      27.92      11.72      10.31
C      28.00      17.82      13.20
C      26.97      15.40      17.60
H      28.99      18.26      12.98
H      27.72      15.28      18.39
C      28.00      14.25      11.23
C      26.97      11.83      15.63
H      26.99      14.51      16.97
H      25.99      15.46      18.08
H      27.25      14.37      10.43
H      25.99      11.40      15.85
H      27.00      12.84      16.05
H      27.72      11.22      16.16
H      28.99      14.20      10.75
H      27.97      15.15      11.86
O      27.24       8.23      12.06
O      27.74       9.30      10.11
O      27.24      20.35      18.72
O      27.74      21.42      16.77
C      27.49       9.28      11.36
C      27.49      20.37      17.46
C      27.49      19.07      16.75
C      27.24      17.88      17.44
C      27.24      16.65      16.80
C      27.49      16.61      15.39
C      27.73      17.81      14.68
C      27.73      19.02      15.37
C      27.49      15.36      14.71
C      27.49      14.29      14.12
C      27.49      13.05      13.43
C      27.24      11.84      14.15
C      27.25      10.63      13.46
C      27.49      10.58      12.08
C      27.73      11.77      11.38
C      27.73      13.00      12.03
H      27.25      18.43      12.67
H      27.98      16.81      12.78
