15

C      18.54      10.10       5.14
N      18.57      10.56       1.42
H      19.76      11.79       0.26
H      17.51       9.39       2.76
H      20.66      11.78       4.48
O      22.68      12.32       2.50
O      21.37      13.74       1.30
O      18.13      10.99       5.95
O      18.56       8.84       5.33
C      21.56      12.72       2.04
C      20.37      11.87       2.33
C      19.56      11.43       1.27
C      18.31      10.12       2.66
C      19.00      10.56       3.79
C      20.07      11.44       3.63
