26

C      11.42       7.67      20.13
C      12.61       7.20      20.97
H       7.67      10.50      20.14
H       7.88      11.00      22.58
H      11.36       8.46      22.78
O       8.53      11.11      27.13
O      10.78      10.95      27.40
H      13.21       8.06      21.32
H      12.30       6.62      21.84
H      13.26       6.56      20.36
H      10.85       6.79      19.78
H      11.76       8.15      19.21
O      10.38       7.73      15.77
O       8.11       7.74      15.66
C       9.24       7.99      16.23
C       9.19       8.58      17.54
C       8.48      10.06      20.73
C       8.59      10.33      22.08
C      10.56       8.89      22.19
C      10.45       8.60      20.83
C       9.39       9.19      20.09
C       9.64       9.75      22.83
C       9.74      10.02      24.21
C       9.26       8.90      18.72
C       9.78      10.28      25.40
C       9.69      10.80      26.74
