10

O       6.53       9.60       7.08
O       6.41       7.34       6.79
C       5.91       8.50       6.92
C       0.74       8.12       6.31
C       1.93       8.29       6.48
C       3.26       8.44       6.68
C       4.47       8.54       6.84
O      -1.39       8.91       5.75
O      -1.17       6.85       6.65
C      -0.69       7.93       6.22
