24

H       3.82       4.31      15.46
H       5.97       4.25      17.32
H       2.95       6.77      16.57
H       4.58       8.16      14.70
H       6.73       8.10      16.57
H       7.60       5.64      15.45
C       5.48       5.55      10.61
C       5.37       5.93      14.67
C       5.33       6.89      21.39
C       6.09       7.26      16.30
C       5.67       5.11      16.71
C       4.47       5.16      15.71
C       5.49       5.58      12.06
C       5.22       6.87      19.95
C       6.57       5.89      15.71
C       5.18       6.49      17.35
C       4.89       7.30      15.30
C       3.99       6.52      16.31
C       5.45       5.70      13.27
C       5.16       6.72      18.74
O       6.59       5.66      10.01
O       4.33       5.42      10.07
O       6.51       6.74      21.86
O       4.26       7.03      22.06
