30

C       0.27      11.51       8.89
H       6.53      13.00      12.29
C       2.28      12.40       9.94
H       6.21      14.49      13.22
H       0.79       7.61      10.00
C       4.37      13.44      10.87
N      -2.49       7.16       9.39
H      -0.97       5.87       9.91
O       2.78      14.65       9.55
H       4.61      12.44      11.24
C       3.19      13.58      10.12
C       1.47      10.18      10.51
H       1.57       9.27      11.10
C      -0.24       7.90       9.76
O       5.14      15.71      11.01
C       5.24      14.47      11.30
H       7.32      14.53      11.84
C      -2.85       8.43       9.13
H      -3.90       8.58       8.89
H       1.11      13.45       8.47
C       0.39      10.32       9.63
C       2.39      11.21      10.67
H       3.19      11.08      11.40
H      -2.30      10.50       9.01
C      -0.60       9.23       9.51
H      -0.55      11.63       8.18
C       1.20      12.53       9.04
C      -1.21       6.91       9.70
C      -1.95       9.49       9.19
C       6.39      14.08      12.21
