26

C      -0.92       9.29      28.25
C      -2.30       9.38      28.09
C      -2.81      10.25      27.11
C      -1.90      10.99      26.34
C      -0.54      10.83      26.56
C      -4.24      10.41      26.89
C      -7.21       9.53      28.18
C      -8.65       9.72      28.10
C      -9.28      10.42      27.05
C     -10.67      10.54      27.07
C     -10.82       9.35      29.06
C      -9.44       9.19      29.12
H      -0.48       8.64      29.01
H      -2.98       8.82      28.72
H      -2.25      11.68      25.57
H       0.21      11.38      25.99
H      -4.59      11.16      26.16
H      -6.82       9.00      29.06
H      -8.70      10.87      26.25
H     -11.21      11.08      26.29
H     -11.48       8.93      29.82
H      -8.98       8.64      29.94
N      -0.06      10.00      27.51
N      -5.09       9.71      27.57
N      -6.41       9.99      27.27
N     -11.43      10.02      28.06
