40

O       8.56       5.96      13.74
O       6.31       5.97      14.12
H       8.10      -1.20      15.98
H       5.78      -1.17      15.24
H       9.43      -1.15      14.80
H       5.30      -1.26      13.56
H       5.35       1.09      13.37
H       9.38       1.19      14.87
H       8.95       1.17      12.41
H       7.31       1.16      11.77
H       9.23      -2.32      12.09
H      11.08      -1.35      11.24
H      10.71       0.23      11.94
H       9.88      -0.29      10.46
H       6.06      -1.10      11.74
H       6.45      -1.43       9.50
H       8.19      -1.58       9.78
H       7.42       0.02       9.88
H       8.03       1.14      16.01
H       5.62       1.16      15.11
C       7.47      -5.44      14.01
C       7.43       5.40      13.92
C       8.42      -0.78      15.01
C       6.04      -0.81      14.24
C       6.00       0.74      14.18
C       8.38       0.77      15.04
C       7.42       3.95      13.91
C       7.46      -1.33      13.92
C       7.43       1.29      13.93
C       7.95       0.76      12.57
C       7.95      -0.80      12.51
C       7.42       2.74      13.92
C       7.48      -2.78      13.94
C       7.49      -3.99      13.99
C      10.26      -0.64      11.43
C       7.29      -1.05      10.11
N       9.29      -1.32      12.29
N       7.02      -1.35      11.51
O       8.59      -6.02      14.23
O       6.35      -6.00      13.80
