16

O      -1.29      27.42      11.12
Cl      -0.83      27.08      17.44
O      -2.62      28.39      12.64
C      -1.63      27.67      12.31
Cl       0.83      25.86      11.55
C       1.63      25.28      16.68
O       2.62      24.55      16.35
Cl      -2.43      28.25      15.30
O       1.29      25.53      17.88
Cl       2.43      24.69      13.69
C      -0.80      27.05      13.43
C       0.80      25.89      15.56
C      -1.10      27.28      14.80
C       1.11      25.66      14.19
C      -0.33      26.71      15.84
C       0.33      26.23      13.15
