22

H      29.68      16.24      11.04
H      29.45      18.33      12.46
H      28.41      21.53      14.63
H      32.73      21.51      14.63
Cl      27.95      23.82      16.19
Cl      33.22      23.78      16.19
C      30.54      16.79      11.41
C      30.42      17.93      12.19
C      31.59      18.57      12.63
C      32.84      18.04      12.27
C      32.87      16.87      11.48
C      29.37      21.96      14.93
C      30.57      21.37      14.53
C      31.78      21.95      14.93
C      31.73      23.09      15.71
C      29.43      23.11      15.71
N      31.75      16.27      11.07
N      31.61      19.73      13.42
Cl      34.36      16.19      11.02
Cl      34.29      18.78      12.78
N      30.47      20.20      13.73
N      30.58      23.69      16.11
