28

C       2.79       2.46      18.28
C       2.64       3.31      19.40
H       5.40       3.96      14.79
H       2.58       5.38      20.01
H       3.04       6.27      17.75
H       2.66       1.39      18.40
C       2.34       2.66      20.68
H       3.82       0.96      20.78
C       1.24       2.83      21.53
C       2.99       6.17      14.95
C       3.53       4.99      15.50
S       3.18       1.76      15.71
H       0.49       3.62      21.54
H       2.08       6.70      15.23
N       4.82       5.75      13.80
H       2.63       3.18      14.21
N       1.14       1.79      22.39
N       3.77       6.61      13.94
C       4.68       4.76      14.71
N       2.20       0.95      22.16
O       4.54       1.76      15.22
O       2.55       0.55      16.13
O       2.21       2.36      14.57
C       2.70       4.69      19.17
C       2.95       5.19      17.90
C       3.16       4.36      16.78
C       2.92       1.46      21.14
C       3.04       2.97      17.01
