26

O       2.18       2.28      13.94
O      -6.89       8.13       9.66
O       0.74       2.23      15.65
O      -5.46       8.18       7.95
H       1.35       3.61      11.98
H      -6.06       6.81      11.62
H      -0.26       4.96      10.70
H      -4.45       5.45      12.90
H      -3.16       4.39      13.86
H      -1.55       6.02       9.74
H      -1.54       3.05      15.10
H      -3.17       7.37       8.50
C       0.01       3.24      13.62
C      -4.72       7.17       9.98
C       0.35       3.78      12.37
C      -5.06       6.63      11.23
C      -0.57       4.55      11.66
C      -4.14       5.87      11.94
C      -1.86       4.80      12.17
C      -2.85       5.62      11.43
C      -2.19       4.24      13.42
C      -2.53       6.18      10.18
C      -1.27       3.47      14.13
C      -3.44       6.94       9.47
C       1.03       2.52      14.43
C      -5.74       7.89       9.17
