28

H       1.97       9.03       6.86
H       1.95      11.52       6.86
H       6.13       8.96       6.86
H       1.98      18.48       6.86
H       6.14      18.41       6.86
H       6.17      15.92       6.86
H       7.26      11.28       7.74
H       6.62      12.70       6.86
H       7.26      11.28       5.98
H       0.86      16.16       7.75
H       1.50      14.75       6.86
H       0.85      16.17       5.98
C       2.90       9.60       6.86
C       2.90      10.99       6.86
C       4.11      11.70       6.86
C       5.32      10.96       6.86
C       5.23       9.57       6.86
C       4.09      13.11       6.86
C       4.02      14.33       6.86
C       4.00      15.75       6.86
C       2.79      16.48       6.86
C       2.89      17.87       6.86
C       5.22      17.84       6.86
C       5.22      16.46       6.86
C       6.68      11.60       6.86
C       1.43      15.84       6.86
N       4.06       8.91       6.86
N       4.06      18.54       6.86
