28

H       1.87      18.63       7.52
H       1.91      16.42       8.71
Cl       2.04      16.57       3.10
H       2.03      14.40       4.92
H       2.03      13.54      11.21
Cl       2.04      11.37      13.04
H       1.91      11.52       7.42
H       1.87       9.31       8.61
O       2.97       8.58      12.02
O       1.10       8.02      10.88
O       2.97      19.35       4.12
O       1.10      19.92       5.25
C       2.02       8.84      11.21
C       2.02      19.10       4.92
C       1.99      17.76       5.56
C       1.92      17.69       6.96
C       1.94      16.48       7.63
C       1.99      15.29       6.88
C       2.02      15.33       5.48
C       2.04      16.56       4.82
C       2.02      12.60      10.65
C       1.99      12.65       9.25
C       1.94      11.46       8.50
C       1.92      10.25       9.17
C       1.99      10.18      10.57
C       2.04      11.38      11.31
N       1.99      13.99       7.43
N       1.99      13.95       8.70
