70

H       5.02       9.30      18.15
H       5.30       8.76      37.53
H       7.76       5.39      24.51
H       7.49      12.20      31.26
H       9.69       9.43      35.27
H       9.10       7.88      20.61
H       7.87       5.39      26.98
H       7.29      12.18      28.79
H       5.08       9.41      20.66
H       5.49       8.52      35.04
H       9.49       9.64      37.77
H       9.04       7.80      18.10
H       6.80       3.76      32.41
H       6.85      14.01      23.69
H       7.70       5.41      28.94
H       6.65      12.06      26.92
C       7.23       8.71      25.06
C       7.58       8.83      30.76
C       7.40       7.49      24.36
C       7.57      10.08      31.44
C       7.63       6.32      25.07
C       7.48      11.26      30.71
C       6.96       9.90      24.33
C       7.68       7.63      31.50
C       7.02       8.53      17.99
C       7.39       9.21      37.79
C       7.56       7.54      28.66
C       7.16       9.98      27.16
C       7.34      10.03      28.61
C       7.53       7.51      27.20
C       7.49       8.80      29.33
C       7.31       8.73      26.48
C       7.66       6.38      29.43
C       6.84      11.12      26.42
C       7.70       6.41      30.83
C       6.73      11.08      25.02
C       6.99       8.44      16.49
C       7.29       9.38      39.27
C       7.69       6.33      26.46
C       7.36      11.23      29.32
C       7.32       7.43      22.88
C       7.62      10.15      32.91
C       6.95       9.90      22.85
C       7.75       7.65      32.98
C       8.21       8.20      20.07
C       8.73       9.27      35.78
C       8.18       8.15      18.68
C       8.63       9.39      37.16
C       5.90       8.99      18.70
C       6.26       8.89      37.03
C       5.93       9.04      20.09
C       6.36       8.77      35.65
C       7.09       8.63      20.77
C       7.60       8.97      35.03
C       7.83       5.09      31.54
C       6.25      12.33      24.33
N       7.12       8.66      22.21
N       7.67       8.92      33.59
O       8.10       8.29      15.91
O       6.12       9.37      39.79
O       8.38       9.52      39.91
O       5.85       8.51      15.92
O       7.42       6.37      22.26
O       7.61      11.21      33.53
O       7.87       6.63      33.65
O       6.81      10.94      22.21
O       8.87       4.46      31.60
O       6.63       4.61      31.95
O       5.08      12.56      24.10
O       7.25      13.23      24.14
