51

S       1.22      15.08      28.16
C       1.51      13.60      33.76
H       5.56      14.04      35.98
S       0.42      12.59      32.87
N       4.91      12.08      35.80
C      -0.48      13.92      32.27
C      -1.27      18.30      31.17
H      -2.07      16.47      28.71
N      -2.08      14.03      24.07
H      -0.18      13.26      23.65
C      -1.04      16.12      28.76
H       2.07      10.96      34.40
C      -0.21      16.31      29.90
F      -0.34      19.28      30.81
C      -0.78      13.82      24.36
F      -2.32      18.44      30.30
C       2.66      13.06      34.46
F       0.23      18.06      34.01
H       3.63      15.00      34.76
C       2.83      11.69      34.68
F      -1.60      16.91      34.47
H       4.15      10.17      35.53
F      -1.53      19.79      33.09
F      -3.05      18.21      32.77
H       0.85      14.03      25.71
H       1.67      15.75      34.12
C       1.08      15.81      29.71
H      -3.88      14.85      24.67
C      -0.98      14.99      26.47
H      -2.31      14.58      31.39
H      -2.22      12.82      31.62
C       3.68      13.93      34.91
H      -1.30      13.60      30.31
C       2.27      15.88      30.60
C       3.96      11.23      35.34
H      -2.99      15.76      26.80
C      -0.20      14.27      25.54
H       2.24      16.79      31.22
C       1.14      14.93      33.64
H       3.20      15.90      30.02
C      -0.88      17.45      33.45
H       2.32      15.02      31.28
C      -2.84      14.72      24.95
C       0.03      15.12      32.77
C      -0.42      15.44      27.73
C       4.77      13.40      35.58
C      -1.64      13.71      31.35
C      -0.64      16.93      31.15
C      -2.33      15.21      26.14
C      -1.72      18.51      32.66
C      -0.48      16.44      32.40
