36

H       0.83      20.08      13.77
H      -0.13      17.74      16.86
H      -2.44      16.86      15.50
H      -3.01      19.56      14.78
H      -2.75      21.10      12.65
H      -1.04      21.48      12.35
H      -2.14      21.21      10.98
H      -0.73      19.16      11.33
H      -2.43      18.80      11.65
H       1.60      16.79      12.30
H       2.42      18.31      12.70
H       3.25      16.75      12.92
H       2.43      17.66      15.15
H       1.62      16.14      14.74
C      -0.98      14.22      11.23
C      -1.19      18.91      13.39
C       0.10      19.36      14.15
C      -0.65      21.63      17.09
C      -0.98      15.33      12.15
C      -2.03      19.07      14.71
C      -0.74      19.56      15.47
C      -1.72      17.59      15.12
C      -0.89      17.39      13.79
C      -0.43      18.05      15.86
C       0.41      17.88      14.56
C      -0.68      20.67      16.34
C      -0.96      16.28      12.91
C      -0.65      22.75      18.00
C      -1.57      19.38      12.02
C      -1.89      20.88      12.00
C       1.73      17.19      14.43
C       2.28      17.27      13.01
O       0.17      13.79      10.87
O      -2.12      13.79      10.85
O      -1.79      23.19      18.35
O       0.49      23.18      18.37
