23

N       5.66      11.09       2.80
H       9.33      11.16       1.15
N       5.30      10.26       1.86
H       8.98       9.53       0.58
N       6.41       9.79       1.24
H       9.35       8.64       2.91
N       9.45      12.98       5.22
H      10.79       9.47       2.21
N       9.71      14.28       5.51
H      11.68      10.37       4.49
N      10.58      14.32       6.48
H      10.58       9.00       4.85
N      10.90      13.05       6.83
H       9.19      10.37       6.31
O       9.77      10.52       3.69
H      10.89      10.39       6.85
C       7.47      10.37       1.82
C       8.91      10.19       1.45
C       9.76       9.61       2.58
C      10.64      10.10       4.75
C      10.20      10.73       6.06
C      10.19      12.22       6.04
N       7.01      11.17       2.79
