32

H      18.45       8.16       3.03
H      16.29      11.90       3.03
H      11.83       4.33       8.44
H       9.66       8.08       8.44
O       9.75       4.31       9.72
O       8.61       6.29       9.72
O      18.37      11.92       1.76
H      15.99       6.63       5.08
O      19.51       9.95       1.76
H      13.74      10.53       5.08
H      12.13       9.60       6.40
H      14.38       5.70       6.40
C       9.59       5.54       9.39
O      14.33      11.07       4.52
O      16.76       6.88       4.52
O      11.36       9.36       6.95
C      18.53      10.70       2.09
O      13.78       5.16       6.95
C      17.47      10.09       2.95
C      17.60       8.75       3.35
C      16.61       8.18       4.15
C      15.49       8.94       4.57
C      15.39      10.30       4.15
C      16.37      10.86       3.35
C      14.49       8.37       5.38
C      13.62       7.87       6.09
C      12.63       7.29       6.91
C      12.73       5.94       7.33
C      11.74       5.37       8.13
C      10.65       6.15       8.52
C      10.52       7.48       8.13
C      11.50       8.05       7.33
