11

H       4.18       8.47      12.08
H       3.26       9.26       8.33
O       3.83       9.26      11.62
C       3.07      11.15       9.42
C       3.91       7.43      10.07
O       2.50      11.62      10.46
C       3.63       8.88      10.34
C       3.29       9.70       9.32
O       4.49       6.81      11.04
O       3.55       6.94       8.96
O       3.47      11.83       8.40
