16

C       4.23      13.00      13.62
C       5.45      12.55      13.09
O       3.51       9.96      16.65
O       5.70       9.53      16.24
C       5.07      15.40      10.68
S       3.63      14.38      12.78
S       6.05      11.17      13.93
C       4.61      10.15      16.03
O       6.17      15.59      10.06
Cl       7.35      12.97      11.16
Cl       2.34      12.58      15.55
O       3.98      16.02      10.48
C       5.91      13.33      12.01
C       3.77      12.22      14.70
C       5.03      14.37      11.73
C       4.65      11.17      14.98
