22

H       0.91       2.16       6.73
H      -3.25       2.39       2.86
N       0.25       0.71       8.12
N      -4.35       6.41       1.51
N      -5.37       5.48       1.49
N      -0.82      -0.16       8.18
F      -0.64       4.43       2.99
F       0.48       2.58       4.35
F      -2.85       1.43       4.89
F      -2.64      -0.69       6.87
F      -2.09       6.45       1.97
F      -5.59       3.21       1.91
C      -1.45       3.35       3.21
C      -2.70       3.31       2.69
C      -4.83       4.31       1.82
C      -0.87       2.45       4.18
C      -1.53       0.03       7.06
C      -1.51       1.62       5.05
C      -0.96       1.02       6.24
C       0.18       1.40       6.97
C      -3.23       5.76       1.87
C      -3.45       4.39       2.10
