42

C      13.85      11.91      10.90
C      13.22      10.83      11.54
C      16.78       6.25      14.59
C      16.09       6.10      15.80
C      15.51       4.88      16.14
C      15.59       3.80      15.25
C      16.27       3.94      14.04
C      16.87       5.15      13.72
N      19.57       8.65      13.89
N      10.57       8.47      14.14
N      15.41       8.73      13.53
N      14.73       8.47      14.55
H      10.70      10.17      12.98
H      19.44       6.72      14.63
H      17.05      10.63      12.85
H      13.10       6.77      15.60
H      19.56      10.56      13.09
H      10.57       6.78      15.34
H      14.18      11.46      14.74
H      15.26      13.39      13.63
H      15.07      13.67      11.15
H      13.75      12.03       9.83
H      12.65      10.11      10.95
H      16.04       6.94      16.49
H      14.99       4.77      17.09
H      15.13       2.84      15.51
H      16.33       3.10      13.34
H      17.40       5.27      12.77
C      18.86       7.57      14.27
C      11.28       9.43      13.53
C      17.46       7.52      14.22
C      12.67       9.52      13.59
C      16.81       8.67      13.73
C      13.33       8.52      14.35
C      17.55       9.76      13.28
C      12.58       7.53      15.01
C      18.93       9.73      13.40
C      11.20       7.53      14.87
C      13.35      10.65      12.92
C      14.09      11.59      13.66
C      14.70      12.67      13.03
C      14.59      12.83      11.65
