80

H       8.08      17.18       6.39
H       3.81      17.58       6.10
H       6.32      19.37       3.12
H       3.13      15.85      11.82
H       7.38      16.02      12.48
H       4.71      15.68      15.83
C       7.37      18.28       4.66
C       7.21      17.57       5.85
C       5.94      17.40       6.41
C       4.80      17.78       5.69
C       4.95      18.44       4.47
C       6.23      18.77       4.02
C       3.77      15.73      13.89
C       3.98      15.81      12.50
C       5.28      15.93      12.00
C       6.37      15.90      12.87
C       6.17      15.79      14.25
C       4.87      15.71      14.75
C      10.95      16.31      17.52
C       0.23      19.27       1.22
C      12.43      19.04       1.81
C      -1.28      16.35      16.76
C       0.74      14.96      16.07
C      -0.04      16.12      15.93
C       0.39      17.09      15.00
C       1.61      16.96      14.32
C       2.41      15.81      14.49
C       1.93      14.79      15.33
C       7.97      14.76      15.68
C       7.31      15.89      15.18
C       7.74      17.16      15.62
C       8.88      17.30      16.42
C       9.59      16.16      16.86
C       9.07      14.88      16.55
C       3.10      19.96       3.64
C       3.78      18.73       3.60
C       3.39      17.77       2.64
C       2.34      18.04       1.76
C       1.59      19.22       1.88
C       2.00      20.20       2.79
C      11.10      18.96       3.99
C      11.13      19.01       2.59
C       9.93      18.75       1.90
C       8.79      18.34       2.59
C       8.69      18.49       4.00
C       9.87      18.85       4.68
C       5.65      17.60      10.17
C       5.48      16.25      10.56
C       5.48      15.26       9.55
C       5.64      15.61       8.20
C       5.80      16.95       7.82
C       5.81      17.94       8.82
Br       2.91      13.17      15.45
Br       0.23      13.59      17.29
Br       2.24      18.38      13.23
Br      -0.71      18.57      14.60
Br       9.85      13.31      17.27
Br       7.33      13.06      15.15
Br       9.40      19.03      16.96
Br       6.74      18.68      15.10
Br       1.01      21.81       2.89
Br       3.66      21.27       4.88
Br       1.93      16.86       0.32
Br       4.24      16.08       2.60
Br       9.85      19.26       6.53
Br      12.75      18.90       4.93
Br       7.44      17.45       1.58
Br       9.89      18.95       0.03
Br       6.02      19.76       8.32
Br       5.65      18.94      11.50
Br       5.63      14.29       6.84
Br       5.28      13.45      10.08
O      11.21      15.67      18.58
O      11.74      17.08      16.89
O       0.02      19.95       0.17
O      13.16      20.07       1.77
O      -2.14      15.41      16.81
O      -1.37      17.47      17.38
O      12.65      17.92       1.25
O      -0.60      18.53       1.84
