50

C       2.92      11.91      18.56
C       3.69      -0.56       9.32
C       4.07      11.64      17.80
C       2.53      -0.29      10.07
C       4.11      10.53      16.96
C       2.49       0.81      10.91
C       3.02       9.67      16.91
C       3.59       1.68      10.96
Br       6.85       3.32      15.12
Br      -0.25       8.03      12.75
H       0.65       5.62      11.54
H       5.95       5.73      16.34
H       1.02       9.22      17.62
N       3.52       2.84      11.81
N       3.08       8.51      16.07
H       5.58       2.12      10.25
H       0.92      11.26      19.07
H       5.68       0.08       8.81
O       4.85      -2.19       8.05
O       1.75      13.54      19.82
H       4.92      12.31      17.88
H       1.68      -0.97       9.99
H       4.99      10.33      16.35
H       1.61       1.01      11.52
O       2.59      -2.29       8.16
O       4.01      13.63      19.72
C       3.72      -1.76       8.44
C       2.88      13.11      19.44
O       1.63       3.56      10.70
O       4.97       7.79      17.17
O       5.37       2.11      12.93
O       1.23       9.24      14.95
C       2.46       3.74      11.59
C       4.14       7.61      16.28
C       4.51       2.97      12.82
C       2.09       8.38      15.06
C       4.43       4.17      13.70
C       2.17       7.18      14.18
C       3.37       5.10      13.52
C       3.23       6.25      14.35
C       2.40       4.90      12.50
C       4.20       6.44      15.37
C       5.36       4.41      14.72
C       1.24       6.93      13.16
C       5.23       5.54      15.54
C       1.37       5.80      12.33
C       1.87       9.91      17.67
C       4.73       1.44      10.20
C       1.81      11.04      18.48
C       4.79       0.30       9.39
