14

C       1.13      -5.72      10.34
C      -0.22      -5.73      10.39
C       1.92      -6.60      11.20
C       1.53      -6.90      12.45
H       1.64      -5.10       9.61
H      -0.74      -6.45      11.01
H       2.85      -7.01      10.82
H       0.65      -6.43      12.89
O      -0.72      -3.85       8.98
C      -1.10      -4.98       9.48
C       2.24      -7.80      13.37
O       1.83      -7.79      14.58
O      -2.22      -5.53       9.25
O       3.21      -8.54      12.93
