30

O       3.78       5.64       6.79
O       3.37       8.03      -5.22
H       6.87       4.12       2.17
H       6.94       4.59       4.63
H       2.71       5.31       4.62
H       2.62       4.86       2.17
H       6.07       3.13      -2.60
H       6.10       3.77      -5.00
H       3.29       6.32      -1.81
H       2.44       7.68      -3.44
C       4.75       4.48       2.00
C       4.72       4.38       0.59
C       4.71       4.43      -0.63
C       5.48       3.97      -2.95
C       5.50       4.34      -4.29
C       4.74       5.42      -4.76
C       3.94       6.14      -3.85
C       3.90       5.76      -2.51
C       4.69       4.69      -2.03
C       4.75       5.71      -6.24
C       4.88       5.32       6.23
C       5.96       4.38       2.71
C       6.00       4.64       4.08
C       4.83       5.00       4.77
C       3.61       5.05       4.07
C       3.56       4.80       2.71
C       3.19       7.37      -4.21
O       5.86       5.99      -6.78
O       3.63       5.56      -6.83
O       6.01       5.26       6.81
