10

F       1.37       7.25       5.67
F      -1.36       3.94       8.83
F       1.37       3.94       8.83
F      -1.36       7.25       5.67
C       0.71       6.42       6.46
C      -0.69       4.77       8.04
C       0.71       4.77       8.04
C      -0.69       6.42       6.46
N      -1.38       5.60       7.25
N       1.39       5.60       7.25
