36

O      17.27      11.60       1.27
O      18.14       9.54       1.66
H      17.56       8.18       2.46
H      15.80      12.31       1.65
H      11.98      11.09       3.85
H      13.73       6.99       4.65
H      11.85       6.40       5.73
H      10.11      10.50       4.93
H       6.27       9.31       7.12
H       8.03       5.18       7.93
O      16.81       7.77       2.96
O      14.92      12.21       2.08
O      12.72      11.50       3.36
O      14.60       7.09       4.22
O      11.12       5.99       6.22
O       9.23      10.40       5.36
C       6.65       7.09       7.81
O       8.92       5.28       7.49
O       7.02       9.72       6.62
C      17.18      10.40       1.77
C      15.97      10.02       2.47
C      15.85       8.71       3.03
C      14.67       8.35       3.70
C      13.61       9.28       3.82
C      13.72      10.58       3.26
C      14.89      10.95       2.59
C      12.43       8.91       4.49
C      11.40       8.58       5.08
C      10.22       8.21       5.76
C      10.11       6.91       6.32
C       8.95       6.54       6.99
C       7.87       7.47       7.11
C       7.99       8.78       6.55
C       9.16       9.14       5.88
O       5.69       7.95       7.92
O       6.56       5.89       8.31
