16

C      15.13       3.33       4.88
C      13.15       2.09       3.25
C      15.25       3.34       3.47
C      13.04       2.07       4.66
C      14.27       2.73       2.69
Cl      16.57       4.05       2.61
C      14.02       2.69       5.44
Cl      11.75       1.32       5.53
O      12.51       1.49       1.06
C      16.10       3.96       5.84
O      15.92       3.70       7.07
H      14.36       2.73       1.61
H      13.94       2.67       6.52
O      11.09       1.01       2.77
O      17.02       4.70       5.36
C      12.17       1.48       2.29
