25

C       2.15      11.23       4.04
H       5.41      14.39       5.06
C       1.08      11.99       4.55
H       3.09      13.75       4.40
C      -0.24      11.70       4.21
H       4.39       9.63       4.49
C       0.29       8.81       1.81
C      -1.32      12.51       4.85
H       6.66      10.46       5.14
H      -1.53      10.45       3.00
N       6.12      12.45       5.12
H       2.67       9.53       2.79
O      -2.54      12.19       4.69
H       1.27      12.81       5.24
O      -0.93      13.48       5.58
C       5.14      13.35       4.92
O      -0.65       8.98       0.97
C       3.85      12.98       4.56
O       1.04       7.78       1.85
C       3.53      11.62       4.40
C       4.57      10.70       4.59
C       5.84      11.15       4.95
C      -0.51      10.66       3.30
C       0.55       9.89       2.81
C       1.86      10.15       3.20
