16

O      25.09       6.42       7.37
O      26.43       8.25       7.37
C      25.45       7.56       6.95
O      22.58      11.07       2.21
O      21.24       9.24       2.21
F      23.12       6.29       5.73
F      24.55      11.20       3.84
C      24.62       8.16       5.85
F      25.96      10.16       5.73
C      23.51       7.50       5.30
C      24.16       9.99       4.28
C      23.04       9.32       3.73
C      24.92       9.43       5.30
C      22.74       8.06       4.28
C      22.22       9.93       2.63
F      21.71       7.32       3.85
