15

N      14.43       4.67       3.00
C      15.54       2.74       1.74
C      15.62       4.13       2.32
H      16.01       4.79       1.53
C      16.43       4.18       3.65
H      17.21       4.95       3.68
H      16.85       3.22       3.98
C      15.11       4.60       4.33
H      14.69       3.86       5.03
C      15.09       5.96       5.02
H      13.61       4.06       2.92
O      14.47       2.06       1.93
O      16.58       2.36       1.11
O      16.18       6.62       5.05
O      13.97       6.32       5.50
