14

O       9.51      -0.57       2.76
C      13.89      -3.91       6.36
H      12.19      -2.44       2.99
H      11.25      -4.45       5.81
C      10.45      -1.35       2.35
Br       8.97      -2.68       5.10
H      13.31      -2.27       5.08
C      10.76      -2.78       4.46
C      11.18      -2.19       3.32
O      10.87      -1.44       1.15
C      11.65      -3.57       5.30
C      12.93      -3.20       5.50
O      13.59      -5.08       6.81
O      14.97      -3.27       6.62
