28

C      18.32       6.41       2.19
C      11.79       2.43      11.52
C      17.59       5.91       3.41
C      12.56       2.84      10.30
C      16.47       5.07       3.29
C      13.82       3.46      10.42
C      15.81       4.62       4.42
C      14.53       3.84       9.29
C      16.27       5.00       5.69
C      13.98       3.61       8.01
H      16.14       4.79       2.29
C      12.73       2.97       7.89
C      17.40       5.82       5.81
N      15.66       4.63       6.91
C      18.06       6.27       4.68
H      14.94       3.96       4.35
H      15.51       4.31       9.36
N      14.59       3.97       6.79
H      17.74       6.09       6.82
H      14.23       3.62      11.42
C      12.03       2.59       9.03
H      12.34       2.79       6.89
H      18.94       6.91       4.74
H      11.06       2.10       8.96
O      17.82       6.10       1.05
O      12.29       2.73      12.65
O      19.37       7.09       2.39
O      10.70       1.81      11.31
