19

H       2.53       7.32      13.21
H       3.76       8.81      14.29
H      -1.00       9.34      15.78
H      -0.39       9.46      11.17
H      -1.24       8.73      12.53
H      -0.09      10.04      12.84
C       0.92       7.15      11.25
C       1.86       8.84      14.57
C       0.81       9.26      15.35
C       1.74       8.07      13.35
C       0.82       8.15      12.35
C       0.93      10.03      16.62
C      -0.28       9.16      12.22
O      -0.19       6.79      10.72
O       2.07       6.73      10.90
O      -0.22      10.31      17.13
O       2.06      10.32      17.10
O       3.15       9.07      15.00
O      -0.48       8.91      15.05
