40

C      12.50      11.54       3.11
C      14.65       7.00       4.42
C       9.13      10.59       5.51
C      10.94       5.76       6.06
H      16.59       8.00       2.97
H      14.89      11.87       2.10
H       8.68       5.54       7.37
O       5.50       7.88       7.72
O       6.51       5.96       8.44
H       7.06       9.47       6.66
H      11.26      10.13       2.68
O      17.24      11.60       1.43
O      17.96       9.44       1.52
H      10.93      10.68       6.20
H      11.16       6.29       4.22
H      13.87       7.79       6.00
C       6.49       7.07       7.80
C      17.12      10.37       1.75
O      11.26      11.10       2.79
O      12.72      12.72       3.31
O      14.21       6.92       5.70
O      15.10       6.03       3.85
O      10.27      11.27       5.79
O       8.18      11.14       4.98
O      11.48       5.60       4.82
O      11.21       5.00       6.97
C      15.87       9.98       2.46
C      15.76       8.71       3.05
C      14.62       8.36       3.76
C      13.51       9.25       3.80
C      13.61      10.51       3.16
C      14.80      10.88       2.54
C      12.32       8.88       4.48
C      11.29       8.56       5.07
C      10.10       8.19       5.75
C       9.93       6.87       6.23
C       8.78       6.53       6.95
C       7.74       7.46       7.09
C       7.87       8.75       6.57
C       9.06       9.14       5.95
