24

N      11.81       8.86      31.92
N      21.41       8.85      31.96
H      11.82      10.32      30.45
H      14.34      10.43      30.36
H      11.92       7.40      33.40
H      21.30      10.32      30.50
H      21.40       7.38      33.42
H      18.88       7.27      33.53
O      14.52       7.20      33.61
O      18.70      10.53      30.30
H      15.49       7.31      33.51
H      17.73      10.41      30.39
C      12.46       9.69      31.08
C      13.84       9.75      31.04
C      14.59       8.91      31.89
C      13.89       8.04      32.76
C      12.49       8.05      32.74
C      16.00       8.91      31.91
C      17.22       8.81      32.00
C      18.63       8.80      32.01
C      19.33       9.68      31.14
C      20.72       9.66      31.15
C      20.77       8.01      32.80
C      19.39       7.96      32.85
