18

H       0.30       1.35       4.16
H      -1.05       6.01       3.16
H      -0.01       3.00       6.04
C      -0.18       3.28       5.00
C      -0.02       2.37       3.97
C      -0.10       1.67       1.59
N      -0.95       4.48       1.03
C      -0.70       5.62       5.77
O       0.61       0.65       1.88
O      -0.69       1.84       0.47
O      -0.78       6.86       5.46
O      -0.73       5.26       6.99
C      -0.55       4.60       4.68
C      -0.77       4.98       3.36
C      -0.27       2.72       2.62
C      -0.67       4.05       2.30
H      -0.78       3.87       0.22
H      -1.00       5.47       0.86
