24

C       3.20       0.72      12.44
C       2.99       0.55      13.81
C       1.80       1.00      14.38
C       0.84       1.57      13.53
C       1.10       1.66      12.17
C       4.54       0.37      11.83
C       0.91       1.88      17.94
C       0.92       1.91      16.55
C       1.62       0.92      15.84
C       2.21      -0.12      16.57
C       2.13      -0.10      17.96
C       0.26       3.01      18.76
H       3.79       0.11      14.41
N       2.27       1.26      11.64
H       0.37       2.07      11.47
H       0.42       2.74      16.05
H       2.77      -0.93      16.09
H      -0.11       1.93      13.92
N       1.53       0.89      18.62
H       2.60      -0.88      18.56
O       4.79       0.79      10.66
O       5.35      -0.29      12.56
O       0.62       3.10      19.99
O      -0.54       3.74      18.15
