30

O      17.87      15.94      15.99
O      16.38      14.92      14.61
H      12.35      12.15      25.13
H      13.66      12.85      23.14
H      10.45      11.52      20.58
H       9.15      10.82      22.61
H      12.35      12.39      19.56
C      16.84      15.24      15.76
C      16.09      14.74      16.96
C      14.99      13.88      16.82
C      14.30      13.42      17.93
C      14.69      13.80      19.23
C      15.81      14.66      19.36
C      16.49      15.12      18.24
C      14.00      13.37      20.44
O      10.37      11.29      26.33
H      14.70      13.57      15.81
H      13.46      12.73      17.80
H      16.13      14.96      20.36
H      17.36      15.78      18.33
H      14.48      13.67      21.37
O       8.77      10.44      24.95
C       9.88      11.03      25.18
C      10.67      11.46      23.98
C      11.94      12.03      24.12
C      12.67      12.43      23.01
C      12.14      12.26      21.71
C      10.87      11.67      21.58
C      10.14      11.28      22.69
C      12.85      12.67      20.50
