26

O       8.08       5.40       2.99
O       2.20       5.62      -3.01
H       5.70       5.48      -1.48
H       1.57       5.08      -0.78
H       2.62       4.65       0.58
H       7.33       7.76      -0.20
H       8.39       7.55       1.21
H       9.05       7.37      -0.43
H       8.69       5.13       0.64
H       7.65       5.32      -0.78
H       4.59       5.19       1.43
H       3.03       7.10       1.05
H       1.97       7.53      -0.30
H       1.30       6.70       1.12
C       3.64       5.44      -1.13
C       5.35       5.33       0.66
C       4.93       5.41      -0.70
C       2.45       5.40      -0.20
C       2.17       6.76       0.46
C       7.83       5.68       0.24
C       8.17       7.18       0.20
C       6.86       5.35       2.59
C       3.41       5.53      -2.60
C       6.64       5.42       1.11
O       5.84       5.27       3.35
O       4.43       5.50      -3.36
