15

H      13.18       3.11       2.58
O      10.64       0.99       2.78
O      13.09       3.03       6.62
H      11.76       1.61       4.87
O      11.69       1.90       0.96
C      14.73       3.24       4.92
O      16.85       4.17       5.05
O      15.60       4.04       6.96
C      11.53       1.72       2.22
H      14.99       3.04       3.88
C      12.52       2.26       4.42
C      12.49       2.44       3.09
C      13.49       2.87       5.34
C      15.79       3.86       5.71
H      12.16       2.75       6.71
