20

H       2.36       7.26       3.93
H       1.66       6.31       5.12
H       2.36      12.87       7.70
H       1.66      13.82       6.50
C       1.96       6.85       7.73
C       1.96      13.28       3.90
C       1.87       8.26       5.62
C       1.87      11.87       6.00
C       1.92       8.12       7.01
C       1.92      12.01       4.61
C       2.00      10.50       6.36
C       2.00       9.63       5.26
S       2.02       9.64       7.85
S       2.02      10.49       3.77
N       1.70       7.23       4.70
N       1.70      12.90       6.92
O       2.88       6.66       8.59
O       1.07       5.98       7.41
O       2.88      13.47       3.03
O       1.07      14.15       4.21
