16

O      22.22      21.42      30.66
O      23.45      19.51      30.70
C      18.57      17.81      26.68
C      19.55      18.45      27.62
C      21.48      19.57      29.39
C      19.44      19.77      28.09
C      21.59      18.25      28.91
C      20.38      20.32      28.96
C      22.46      20.21      30.33
C      20.66      17.71      28.05
F      22.63      17.46      29.28
O      18.84      16.61      26.33
F      18.41      20.57      27.73
O      17.57      18.50      26.32
H      20.26      21.34      29.31
H      20.78      16.68      27.70
