36

C       5.71      10.83      17.36
C       5.00      11.67      16.49
C       3.61      11.67      16.49
C       5.00       9.98      18.23
C       3.61       9.99      18.23
C       2.89      10.83      17.36
C       1.42      10.83      17.36
C       0.70      10.82      18.57
C       0.70      10.83      16.15
C      -5.71      10.83      17.36
C      -5.00       9.98      16.49
C      -3.61       9.99      16.49
C      -5.00      11.67      18.23
C      -3.61      11.66      18.23
C      -2.89      10.83      17.36
C      -1.42      10.83      17.36
C      -0.70      10.82      16.15
C      -0.70      10.83      18.57
H       5.56      12.33      15.83
H       3.06      12.34      15.83
H       5.56       9.32      18.89
H       3.06       9.31      18.89
H       1.24      10.82      19.51
H       1.24      10.83      15.21
H      -5.56       9.32      15.83
H      -3.06       9.31      15.83
H      -5.56      12.33      18.89
H      -3.06      12.34      18.89
H      -1.24      10.82      15.21
H      -1.24      10.83      19.51
O       7.78      10.02      18.17
O       7.78      11.63      16.55
O      -7.78      11.63      18.17
O      -7.78      10.02      16.55
C       7.20      10.83      17.36
C      -7.20      10.83      17.36
