35

H       0.96       7.62      19.94
H       1.38       9.19      18.31
H      -0.74      11.83      19.89
Br       1.64      12.03      19.30
H       1.24       9.79      20.94
Br      -3.49       7.97      20.53
H      -0.09      10.58      21.80
H      -2.29       9.00      18.11
H      -2.69      10.64      18.65
H       0.06       8.42      17.40
N      -0.82       6.84      19.10
H      -2.37      10.10      20.94
O       0.64      12.66      14.49
H      -1.28       6.43      19.91
H       0.83       5.46      18.99
H       0.35       6.21      17.46
H      -0.68       4.97      18.17
O      -1.65      12.62      14.46
O       0.54       6.34      24.59
O      -1.75       6.37      24.69
C      -0.51      12.35      14.96
C       0.31       8.92      18.34
C      -0.03      11.03      19.67
C       0.19      10.09      20.86
C      -0.65       7.46      22.97
C      -0.53      10.21      18.46
C       0.00       7.97      19.53
C      -0.67       8.80      20.67
C      -2.06       9.31      20.25
C      -2.01       9.80      18.80
C      -0.68       8.05      21.91
C      -0.51      10.97      17.23
C      -0.51      11.60      16.19
C      -0.62       6.67      24.18
C      -0.04       5.82      18.41
