16

C      14.33       2.83       2.68
C      13.97       2.60       5.45
C      16.07       3.90       5.87
O      11.24       0.91       2.79
O      15.86       3.77       7.12
O      12.45       1.66       1.01
O      17.06       4.52       5.34
C      12.23       1.52       2.26
H      16.12       3.94       3.17
H      12.18       1.49       4.96
H      14.46       2.90       1.60
H      13.84       2.53       6.53
C      15.08       3.29       4.94
C      13.22       2.14       3.19
C      15.25       3.40       3.55
C      13.05       2.03       4.58
