26

H      11.67       8.91       5.93
O       9.63       7.97       7.14
O       9.60       5.83       6.40
O      16.43       8.14       6.50
O      16.46       5.89       6.70
F      11.74       6.63       9.13
F      11.84       7.61       4.40
H      12.09       8.38       8.22
H      14.38       7.87       8.57
F      12.11       4.57       7.28
H      11.73       5.17       5.38
H      14.13       8.18       4.77
H      14.00       9.10       6.27
H      14.31       4.80       6.39
H      14.04       6.12       8.56
H      13.98       5.66       4.88
C      10.19       6.89       6.76
C      14.34       6.97       6.57
C      13.85       7.07       8.04
C      15.87       7.01       6.58
C      12.21       7.98       5.72
C      13.73       8.15       5.79
C      12.33       7.32       8.05
C      12.30       5.54       6.24
C      11.72       6.89       6.70
C      13.80       5.67       5.96
