57

C       6.75       2.61       5.78
C      11.74       3.55       5.78
C       5.95       3.77       5.71
C      12.54       2.40       5.71
H       5.19       0.91       3.27
H      13.30       5.25       3.27
C       4.96       3.82       4.73
H       7.09       0.65       4.93
H      11.41       5.51       4.93
C      13.53       2.34       4.73
H       6.08       4.60       6.39
C      10.44       2.65       7.57
C       8.05       3.51       7.57
H      12.41       1.56       6.39
C       9.25       3.08       8.43
H       4.33       4.71       4.62
H      14.16       1.45       4.62
C       9.70       4.26       9.31
C       8.79       1.91       9.31
H       8.30       4.42       7.01
H      10.19       1.74       7.01
C      10.07       6.93      12.57
C       8.42      -0.76      12.57
H       7.18       3.70       8.21
H      11.32       2.47       8.21
C      10.02       6.02      11.51
C       8.47       0.14      11.51
H      10.20       5.03       8.69
H       8.30       1.14       8.69
C       8.77       5.71      10.96
C       9.73       0.46      10.96
H      10.44       3.89      10.04
H       8.06       2.27      10.04
C       7.63       6.33      11.50
C      10.86      -0.17      11.50
H      11.02       7.19      13.04
H       7.48      -1.03      13.04
C       7.79       7.23      12.54
C      10.70      -1.07      12.54
H      10.94       5.56      11.16
H       7.55       0.61      11.16
H       6.64       6.11      11.09
H      11.85       0.05      11.09
N       4.72       2.83       3.86
N      13.77       3.34       3.86
H       6.92       7.75      12.96
H      11.57      -1.58      12.96
N       8.98       7.53      13.08
N       9.51      -1.37      13.08
O       7.76       2.44       6.65
O      10.73       3.73       6.65
C       5.47       1.71       3.96
C      13.03       4.45       3.96
O       8.55       4.84       9.95
O       9.94       1.33       9.95
C       6.49       1.56       4.89
C      12.00       4.60       4.89
