19

C       3.38      -5.13      12.97
C       4.52      -4.58      13.82
C       5.17      -3.34      13.29
C       6.41      -3.45      12.65
C       7.08      -2.34      12.14
C       6.51      -1.07      12.26
C       5.29      -0.93      12.90
C       4.61      -2.05      13.41
C       3.31      -1.78      14.12
H       4.13      -4.45      14.84
H       5.27      -5.38      13.88
H       6.87      -4.43      12.58
H       8.06      -2.47      11.67
H       7.03      -0.19      11.85
H       4.83       0.04      13.04
O       3.39      -4.80      11.70
O       2.55      -5.93      13.44
O       2.46      -2.72      14.24
O       3.15      -0.60      14.58
