28

H      11.23       5.84      20.70
H      12.72       8.51      20.56
C      12.32      11.08      22.67
C      12.85       3.52      22.74
C      12.38      10.99      24.88
C      12.98       3.59      24.94
N      12.59      12.32      23.15
H      12.49       6.13      25.94
N      13.26       2.32      23.17
H      12.40       8.52      25.87
H      12.24      10.91      21.61
N      12.62      12.26      24.50
H      12.73       3.71      21.68
N      13.34       2.35      24.54
H      12.36      10.72      25.93
H      12.97       3.84      26.00
H      13.00       6.05      20.64
H      10.94       8.32      20.67
C      12.20      10.18      23.74
C      12.65       4.39      23.83
C      12.00       7.93      22.59
C      12.13       6.54      22.62
C      12.09       8.73      23.73
C      12.33       5.81      23.80
C      12.25       7.99      24.93
C      12.34       6.60      24.97
C      12.07       6.41      21.11
C      11.91       7.98      21.07
