18

C      12.89      11.22      10.10
C      12.89       9.99      10.90
C      12.82       8.54      12.69
C      12.91       7.64      11.61
C      12.83       6.19      13.41
H      13.35       5.35      10.23
H      13.13       4.31      11.60
N      12.97       5.21      11.16
O      12.85      12.33      10.75
O      12.93      11.08       8.83
S      12.73       7.74      14.21
H      12.75      10.76      12.92
S      12.97       8.45      10.10
C      12.84       4.98      14.21
O      12.97       3.86      13.58
O      12.72       5.12      15.48
C      12.93       6.27      12.01
C      12.81       9.89      12.28
