46

Cl       6.68       1.62       7.78
Cl      10.08       1.48      11.96
Cl       6.60      -1.52       7.74
H      11.57       2.12       9.36
H      11.91       3.64       8.45
H      11.90       2.06       7.60
O       6.24      -2.91      11.04
O      10.04       2.75       8.06
O      10.09      -5.81       8.45
O       6.91       5.87      11.29
H       8.09       6.11      13.00
H       6.67       5.01      13.20
H       6.44       6.79      13.03
H      11.16      -6.24       6.77
H      10.22      -4.72       6.64
H       9.38      -6.32       6.56
H       7.18      -2.13      12.75
H       6.42      -3.76      12.96
H       5.39      -2.30      12.78
C       7.26      -5.01      10.40
C       9.25       4.90       8.85
C       7.25      -3.61      10.44
C       9.30       3.50       8.92
C       8.27      -2.91       9.78
C       8.44       2.86       9.84
C       9.25      -3.63       9.09
C       7.62       3.64      10.66
C       9.17      -5.04       9.04
C       7.69       5.04      10.58
C       9.08      -0.76      10.78
C       7.59       0.71       8.91
C       9.12       0.65      10.80
C       7.55      -0.69       8.90
C       8.38       1.38       9.86
C       8.30      -1.43       9.83
C       6.32      -2.77      12.48
C      11.45       2.65       8.40
C      10.20      -5.75       7.00
C       7.05       5.93      12.73
N       8.19      -5.70       9.70
N       8.49       5.64       9.67
Cl       6.04      -5.86      11.23
Cl      10.17       5.68       7.64
Cl      10.57      -2.81       8.36
Cl       6.47       2.88      11.69
Cl      10.00      -1.66      11.92
