10

O       3.38      29.13      19.06
H       3.09      31.53      23.27
C       3.79      31.12      22.56
H       5.89      31.53      23.27
O       5.59      29.13      19.06
C       5.18      31.12      22.56
C       4.49      30.12      20.80
N       4.49      29.41      19.56
N       3.36      30.48      21.43
N       5.62      30.48      21.43
