30

C       1.60      -7.23      14.91
C       1.60      -7.26      16.32
C       1.60      -5.09      20.64
C       1.60      -5.06      19.24
C       2.76      -7.21      20.65
C       2.75      -7.19      19.25
C       2.76      -5.11      14.91
C       2.75      -5.13      16.30
C       2.17      -6.17      17.04
C       2.17      -6.14      18.52
H       1.12      -8.04      14.36
N       0.98      -8.31      16.98
N       0.98      -4.00      18.58
O       1.22      -5.56      12.14
H       3.26      -4.30      14.37
H       3.24      -4.33      16.86
H       1.12      -4.28      21.20
O       3.12      -6.78      12.13
H       3.26      -8.01      21.19
H       3.24      -7.99      18.70
O       1.22      -6.76      23.42
O       3.13      -5.53      23.42
H       1.26      -8.44      17.94
H       0.90      -9.17      16.45
H       1.26      -3.87      17.61
H       0.90      -3.14      19.11
C       2.17      -6.17      12.72
C       2.17      -6.14      22.84
C       2.17      -6.17      14.22
C       2.18      -6.15      21.34
