28

O       3.85      21.54      16.83
H       3.17      15.83      17.38
H       4.05      17.87      13.66
F       3.12      17.92      18.79
F       4.10      20.18      14.67
H       3.17      11.94      15.25
H       4.05      13.99      11.53
F       3.12       9.63      14.24
F       4.10      11.89      10.12
C       3.61       9.31      11.38
C       3.61      20.50      17.53
C       3.61      19.19      16.81
C       3.37      17.96      17.46
C       3.36      16.73      16.81
C       3.61      16.68      15.43
C       3.86      17.87      14.73
C       3.85      19.08      15.42
C       3.61      15.44      14.75
C       3.61      14.37      14.16
C       3.61      13.13      13.48
C       3.36      11.94      14.18
C       3.37      10.73      13.50
C       3.61      10.62      12.10
C       3.85      11.86      11.45
C       3.86      13.08      12.10
O       3.38       8.27      12.08
O       3.85       9.34      10.13
O       3.38      20.47      18.78
