20

O       6.60      19.84       6.72
H       3.64      19.05       7.10
H       2.73      16.46       5.68
H       4.89      18.72       1.33
H       6.65      19.78       2.73
H       4.54      17.51       7.09
H       1.84      18.00       5.66
C       5.80      19.28       3.20
C       5.74      19.25       4.61
C       2.66      17.40       2.13
C       4.64      18.60       5.17
C       3.97      18.21       6.47
C       2.84      17.54       5.57
C       6.79      19.88       5.45
C       3.65      18.01       4.38
C       3.71      18.02       2.98
C       4.82      18.68       2.41
O       7.80      20.39       4.85
O       1.68      16.85       2.74
O       2.83      17.48       0.86
