28

C      17.20      27.83      11.17
C       6.52      24.53      17.25
F       6.91      24.24      14.40
F       8.84      25.65      18.56
F      11.05      26.36      17.26
F       9.16      24.92      13.15
F      12.75      25.80      11.20
F      14.47      27.64      15.23
F      16.70      28.37      13.97
F      14.99      26.46       9.92
C       7.77      24.91      16.54
C       7.91      24.74      15.15
C       9.08      25.10      14.48
C      10.17      25.66      15.17
C      10.03      25.83      16.56
C       8.87      25.47      17.23
C      11.35      26.02      14.50
C      12.37      26.34      13.92
C      13.55      26.70      13.25
C      13.73      26.43      11.88
C      14.90      26.79      11.21
C      15.95      27.45      11.88
C      15.77      27.72      13.26
C      14.60      27.36      13.92
O      18.25      27.97      11.88
O      17.12      28.00       9.91
O       5.78      23.65      16.69
O       6.29      25.10      18.37
