34

C      10.26       6.62      10.64
C       9.29       1.13      16.01
H      11.20       5.48      13.54
C      11.93       5.29      10.33
H       7.39       4.02      13.62
H       8.08       5.03      11.72
C       7.51       2.44      16.00
H       9.12       4.58      15.26
C      10.69       5.32      10.99
H       9.51       5.95      13.38
Br       8.19       3.22      10.10
Br       8.66       7.53      11.07
H      10.19       0.56      15.80
N       8.65       0.99      17.19
N      12.21       6.42       9.69
H       6.70       3.13      15.79
N       7.56       1.79      17.19
H      10.70       3.81      15.12
C       8.61       2.07      15.21
N      11.15       7.27       9.88
F      12.15       3.36      12.68
C      10.18       2.08      13.18
C      10.90       3.07      12.17
F       7.16       2.27      12.69
C       9.81       4.12      14.55
C       8.01       3.31      13.05
F      12.86       4.32      10.28
C       9.13       2.82      14.01
C      10.10       4.38      12.02
F      11.16       1.52      13.98
F       9.62       1.04      12.48
C      10.19       5.08      13.41
F      11.10       2.42      10.98
C       8.60       4.07      11.81
