46

C       2.31       7.39       1.26
C       2.31       9.73      -1.26
C       2.21       7.21       2.67
C       2.21       9.91      -2.67
C       3.06       8.45       0.74
C       3.06       8.67      -0.74
C       2.85       8.07       3.53
C       2.85       9.05      -3.53
C       3.74       9.34       1.62
C       3.74       7.79      -1.62
C       3.63       9.15       3.04
C       3.63       7.97      -3.04
C       4.54      10.41       1.14
C       4.54       6.71      -1.14
C       4.30      10.05       3.91
C       4.30       7.07      -3.91
C       5.20      11.26       2.01
C       5.20       5.86      -2.01
C       5.07      11.08       3.41
C       5.07       6.04      -3.41
O       3.24       4.55       1.23
O       3.24      12.57      -1.23
H       0.55       4.97      -0.04
H       0.55      12.15       0.04
H       0.27       5.63       1.59
H       0.27      11.49      -1.59
O       1.46       3.36       1.96
O       1.46      13.77      -1.96
O       1.67       6.60       0.36
O       1.67      10.52      -0.36
H       1.62       6.38       3.07
H       1.62      10.74      -3.07
H       2.76       7.93       4.61
H       2.76       9.19      -4.61
H       4.60      10.58       0.07
H       4.60       6.54      -0.07
H       4.19       9.91       4.99
H       4.19       7.21      -4.99
H       5.78      12.09       1.62
H       5.78       5.03      -1.62
H       5.59      11.77       4.09
H       5.59       5.35      -4.09
C       1.99       4.34       1.40
C       1.99      12.78      -1.40
C       1.04       5.40       0.84
C       1.04      11.72      -0.84
