20

O      10.46      18.83       9.34
H       6.13      14.45      11.33
H      11.41      14.95      12.08
H      11.43      16.95      10.60
H       6.17      17.54      11.30
H       6.15      16.50       9.86
H       6.13      15.49      12.78
C       8.09      15.41      11.74
C       9.26      14.81      12.19
C      10.47      15.40      11.75
C      10.48      16.52      10.92
C       9.29      17.13      10.48
C       8.10      16.54      10.91
C       6.59      16.63      10.85
C       6.57      15.35      11.78
C       9.26      13.62      13.08
C       9.32      18.33       9.61
O       8.18      18.76       9.21
O      10.39      13.19      13.48
O       8.11      13.12      13.36
