30

O       7.23       0.51       7.03
H       9.09       0.73       9.62
H       7.58       1.05      11.81
H       5.83       1.04      11.44
H       6.02      -3.65       9.78
H      10.48      -0.14       5.78
H      10.21      -0.41       8.10
H       8.96      -1.63       7.79
H       8.76      -0.19       3.41
H      10.45      -0.70       3.68
H       8.80      -1.35      11.94
H       6.21       1.32       9.07
C       6.82       0.72      11.08
C       7.23       2.95      10.00
C       6.50      -2.79      10.23
C       9.32      -0.63       7.50
C       9.40      -1.03       3.73
C       7.91      -1.60      11.37
C       6.91      -0.76      10.94
C       8.99      -1.35       5.16
C       8.17       0.33       7.83
C       7.08       1.45       9.72
N       8.23       0.87       9.07
N       6.01      -1.53      10.21
N       7.65      -2.88      10.92
N       9.21      -2.18       2.83
N       9.66      -0.64       6.09
O       8.42       3.33      10.30
O       6.21       3.69       9.98
O       8.08      -2.17       5.39
