27

C       1.79       1.66       2.88
O       0.38       0.34       1.45
H       4.19       3.52       4.45
C       3.07       2.29       3.09
O       2.39       0.82       0.73
H       0.22       2.49       5.81
C       3.24       3.01       4.31
H      -0.15       1.23       3.70
C       2.23       3.10       5.27
O       4.11       6.21      10.68
C       0.99       2.45       5.04
O       2.27       7.39      10.09
H       0.48       4.81       6.42
O       4.05       2.27       2.23
H       4.86       4.74       8.75
C       0.79       1.74       3.88
H       4.48       3.23       6.80
C       2.45       3.91       6.48
O       0.63       6.42       8.40
C       1.43       4.75       6.95
C       1.64       5.60       8.04
C       2.89       5.58       8.73
C       3.89       4.71       8.26
C       3.69       3.89       7.15
C       3.12       6.44       9.91
H       1.00       7.01       9.13
C       1.50       0.93       1.66
