20

H       5.92       3.10       6.03
H       1.13       3.13       2.58
H       2.14       4.31       1.67
H       1.02       4.74       4.51
H       2.05       5.89       3.62
C       4.08       5.01       6.58
C       3.15       4.13       4.39
C       4.12       4.11       5.39
C       5.15       3.16       5.25
C       5.20       2.29       4.17
C       4.23       2.31       3.13
C       3.22       3.26       3.30
C       1.98       3.83       2.65
C       1.91       4.83       3.88
C       4.23       1.44       1.93
Cl       6.48       1.11       4.17
O       2.95       5.53       6.87
O       5.17       5.16       7.23
O       3.08       1.06       1.53
O       5.34       1.19       1.36
