36

H       5.32      19.70      10.13
H       1.63      26.19      17.13
O       0.53      21.58      13.13
O       0.21      22.66      11.23
O       6.42      24.31      14.13
O       6.74      23.24      16.03
H       5.41      21.25      12.11
H       1.54      24.64      15.15
O       0.24      19.11      10.40
O       0.28      20.68       8.85
O       6.71      26.79      16.86
O       6.67      25.21      18.41
C       3.71      26.95      18.57
C       3.24      18.95       8.69
C       2.10      21.34      11.45
C       4.85      24.56      15.81
C       2.06      20.48      10.36
C       4.89      25.41      16.90
C       3.23      19.90       9.86
C       3.72      26.00      17.40
C       4.43      20.19      10.51
C       2.52      25.70      16.76
C       4.48      21.04      11.60
C       2.47      24.86      15.66
C       3.31      21.65      12.10
C       3.64      24.25      15.17
C       3.39      22.55      13.18
C       3.55      23.34      14.09
N       0.85      21.91      11.98
N       6.10      23.99      15.28
N       0.76      20.07       9.81
N       6.19      25.83      17.45
O       2.57      27.30      18.99
O       4.38      18.60       8.28
O       4.84      27.30      19.03
O       2.11      18.60       8.23
