19

C      17.84       9.24      27.25
C      14.42      10.92      29.75
C      15.73      10.32      27.95
C      16.52       9.85      29.03
H      13.77      11.37      27.73
C      18.72       8.65      29.60
S      16.49      10.00      26.44
S      15.77      10.16      30.55
H      18.88       7.58      29.42
H      18.38       8.78      30.64
H      19.71       9.13      29.50
C      18.92       8.70      26.42
O      19.89       8.13      27.03
O      18.79       8.84      25.15
C      13.32      11.46      30.56
O      13.43      11.33      31.83
O      12.36      12.00      29.92
C      17.73       9.22      28.64
C      14.53      10.93      28.37
