13

N       8.81       7.13       0.90
H       7.15       6.29       1.94
O       7.87       5.33      -0.85
O       6.35       6.69      -1.77
O       9.74       4.64       1.54
O       8.48       4.46       3.37
C       7.30       6.46      -0.96
C       7.82       7.60      -0.08
C       8.23       6.45       2.08
C       8.86       5.09       2.35
H       6.97       8.09       0.41
H       8.30       8.32      -0.75
H       8.32       7.07       2.98
