30

H       5.61      17.43      25.84
H       2.55      17.40      26.15
O       2.26      17.58      19.24
C       3.39      17.67      19.84
O       3.63      17.80      32.68
C       4.76      17.64      32.15
Cl       5.70      20.09      30.67
Cl       5.65      19.91      27.53
Cl       3.89      15.03      30.98
Cl       3.73      14.86      27.86
Cl       4.44      14.87      24.12
Cl       4.28      15.05      21.00
Cl       2.50      19.91      24.48
Cl       2.45      20.10      21.34
C       4.79      17.55      30.65
C       4.34      16.38      30.02
C       4.28      16.31      28.61
C       4.68      17.41      27.83
C       5.15      18.57      28.48
C       5.19      18.64      29.88
C       4.65      17.38      26.35
C       3.52      17.38      25.64
C       3.00      18.57      23.52
C       3.48      17.41      24.16
C       3.89      16.32      23.37
C       3.82      16.40      21.97
C       3.37      17.57      21.35
C       2.96      18.66      22.12
O       4.52      17.83      19.31
O       5.89      17.54      32.76
