28

C      -0.18       8.99       3.60
C      -3.73       5.50      -4.01
C      -2.95       5.77      -2.89
C      -0.72       8.31       2.51
C      -2.44       6.15      -1.83
C      -1.10       7.76       1.48
C      -1.94       6.65      -0.69
C      -1.53       7.17       0.36
N       1.27      10.29       4.78
H      -0.92       5.20      -4.66
H      -1.22       6.97      -4.80
H      -0.34       6.11      -6.11
H      -2.35       7.11       4.27
H      -3.08       8.75       4.30
H      -3.37       7.61       5.66
C       0.95       9.83       3.58
N      -5.65       5.24      -5.21
N      -4.62       5.44      -6.12
N       0.34       9.78       5.67
C      -1.13       6.03      -5.36
C      -2.65       7.95       4.91
O      -2.34       5.77      -6.10
O      -1.53       8.44       5.67
C      -5.12       5.27      -4.00
F       1.70      10.13       2.52
F      -5.89       5.14      -2.92
C      -3.47       5.58      -5.41
C      -0.53       9.02       4.98
