16

C      25.09       9.43      14.12
O      24.90      10.63      14.49
O      26.08       8.72      14.49
C      21.11       6.96      10.42
Br      22.60      11.32      13.23
Br      23.61       5.07      11.31
Br      20.53      10.04      11.31
Br      25.68       6.35      13.23
O      21.31       5.76      10.05
O      20.13       7.67      10.05
C      24.07       8.80      13.17
C      22.13       7.60      11.37
C      22.94       9.52      12.71
C      23.27       6.87      11.83
C      21.99       8.93      11.83
C      24.22       7.46      12.71
