27

C      15.18       1.81       5.17
C      14.16       0.92       5.82
C      15.72       1.44       3.93
H      15.38       0.51       3.47
C      16.65       2.27       3.32
O      13.85       1.17       7.03
O      20.83       4.66      -1.04
H      19.26       3.14       0.03
H      15.19       3.24       6.78
O      21.12       6.63       0.05
O      13.68      -0.02       5.10
C      18.22       3.34       1.93
C      19.73       4.99       1.04
H      16.68       2.00       1.16
C      19.08       3.75       0.92
H      17.99       1.17       2.01
H      18.51       6.01       4.07
C      17.04       3.49       3.94
H      16.80       4.78       5.68
C      15.59       3.00       5.79
H      20.04       6.75       2.23
C      17.38       2.09       2.02
C      18.67       5.38       3.20
C      18.01       4.15       3.07
C      16.50       3.85       5.18
C      19.53       5.79       2.17
C      20.63       5.46      -0.07
