20

H      24.89      14.40      17.96
H      25.74      12.83      18.00
H      23.98      11.84      16.48
H      23.13      13.40      16.44
Cl      20.32      10.83      21.01
Cl      22.31      12.17      22.80
C      20.79      11.10      17.86
O      21.20      11.00      16.65
O      19.63      10.79      18.29
C      24.92      13.40      21.40
O      24.87      13.29      22.66
O      25.86      13.95      20.73
C      23.79      12.84      20.59
C      21.77      11.67      18.84
C      23.88      12.87      19.20
C      21.64      11.64      20.26
C      22.91      12.31      18.36
C      22.62      12.22      21.11
C      24.75      13.31      18.04
C      23.65      12.69      17.09
