20

C      14.98       1.95       3.05
C      12.91       3.05       4.80
C      13.85       1.23       3.45
C      14.05       3.79       4.40
C      12.87       1.75       4.28
C      15.04       3.26       3.56
C      13.16      -0.11       3.32
C      12.04       0.48       4.27
H      12.82      -0.37       2.31
H      13.72      -0.96       3.73
H      11.94      -0.01       5.24
H      11.04       0.58       3.82
C      11.85       3.59       5.69
C      16.02       1.36       2.16
O      11.96       4.79       6.09
O      10.90       2.77       5.98
O      17.01       2.10       1.84
O      15.82       0.16       1.78
F      14.25       5.06       4.81
F      16.06       4.09       3.27
