26

C       7.09       2.79       7.58
H       6.12       6.15       6.04
H       8.57       5.56       7.36
H       8.77       3.17       5.94
C       6.97       4.15       8.38
H       7.38       1.85       8.05
C       5.61       4.48       7.64
C       7.86       3.51       6.43
H       4.94       2.37       6.70
C       6.39       5.19       6.48
C       5.35       3.14       1.86
C       7.74       4.87       7.19
H       3.65       4.92       7.77
H       4.40       4.68       9.26
C       6.19       3.62       4.32
C       5.88       3.44       3.15
N       4.51       5.05       8.31
O       5.74       2.05       1.30
O       7.59       6.04      12.74
O       8.76       4.09      12.77
C       7.22       4.37       9.75
C       7.94       4.92      12.23
C       7.43       4.57      10.94
O       4.48       3.95       1.37
C       5.74       3.09       6.87
C       6.50       3.83       5.69
