38

H       7.34       9.46       9.04
H       8.00       9.94       7.45
H       7.84       7.46      10.13
H       8.64       5.11      10.00
H       9.91       4.34       8.03
H      10.46       5.95       6.20
H       9.25       9.45       5.99
H       9.80       8.04       5.06
H      14.56      10.90       2.79
H      14.08       9.87       5.00
H       9.87      10.01       3.93
H      10.54      11.00       1.79
H       9.06      14.65      11.67
H      10.27      12.60      10.97
H       5.80      13.72       9.30
H       6.83      11.63       8.51
C       8.24       9.46       8.42
C       8.74       8.05       8.26
C       8.44       7.13       9.28
C       8.86       5.81       9.20
C       9.58       5.37       8.08
C       9.89       6.28       7.07
C       9.50       7.63       7.15
C       9.88       8.55       6.03
C      13.54      10.68       3.09
C      13.26      10.12       4.32
C      11.93       9.83       4.67
C      10.93      10.17       3.74
C      11.30      10.73       2.53
C       8.61      13.94      10.97
C       9.28      12.80      10.58
C       8.65      11.90       9.69
C       6.79      13.43       9.65
C       7.38      12.25       9.21
S      11.63       9.06       6.21
S       9.51      10.45       9.28
N      12.58      10.97       2.18
N       7.37      14.26      10.53
