24

C       8.40      11.66       3.92
H      10.69      13.61      -5.93
C      10.23      12.04       5.13
I      12.18      12.17       5.78
H      13.62      15.10      -3.10
N      12.11      15.18      -5.95
H       8.85      11.31      -2.04
H       7.69      11.42       3.14
N      13.04      15.66      -5.05
N       8.03      12.04       5.14
H      12.47      12.13       0.15
N       9.15      12.29       5.91
C      11.48      14.13      -5.40
O       8.63      10.92      -0.05
C       9.81      11.65       3.83
C      10.54      11.51       2.65
C      11.43      11.79       0.22
C      10.69      11.78      -0.96
C      11.21      12.35      -2.14
C      10.94      11.53       1.49
C      11.56      13.00      -3.12
C      12.98      14.90      -3.95
C      11.99      13.90      -4.11
C       9.29      11.30      -1.01
