26

C       5.72      12.49       7.22
H       6.94      16.93       8.09
H       2.47      16.73       7.97
H       7.80      18.99       9.19
H       1.61      14.74       6.73
H       3.14      17.54      10.02
H       6.27      14.75       8.41
C       5.97      19.42      10.22
C       3.44      13.63       6.88
C       4.63      19.00      10.47
C       4.77      13.63       7.37
C       4.17      17.84       9.82
O       6.53      20.51      10.76
C       5.24      14.77       8.05
C       4.97      17.07       8.97
O       2.87      12.62       6.20
O       4.11      20.66      12.13
C       4.44      15.89       8.29
C       6.30      17.50       8.76
O       5.30      11.36       6.76
O       2.47      19.32      11.38
C       3.11      15.86       7.81
C       6.78      18.65       9.36
O       6.94      12.68       7.55
C       2.63      14.76       7.12
C       3.68      19.70      11.38
