48

H       4.65      16.23       6.12
H       0.33      16.19       6.09
H       2.52      16.19       2.38
H       4.69      16.32      12.22
H       0.37      16.27      12.33
H       2.63      16.37      16.01
H       4.26      15.01      10.43
H       0.73      17.48      10.42
H       0.72      17.45       7.96
H       4.25      14.98       7.97
C       7.40      16.39      16.08
C       7.28      16.20       2.19
C      -2.14      16.34      16.33
C      -2.27      16.15       2.18
C       3.72      16.20       4.18
C       3.70      16.21       5.59
C       2.49      16.21       6.29
C       1.29      16.21       5.57
C       1.29      16.20       4.16
C       2.51      16.19       3.47
C       3.80      16.34      14.18
C       3.75      16.31      12.78
C       2.53      16.29      12.09
C       1.34      16.30      12.84
C       1.37      16.33      14.24
C       2.60      16.35      14.92
C       3.49      15.57       9.89
C       2.50      16.25      10.61
C       1.50      16.91       9.89
C       1.49      16.90       8.49
C       2.49      16.22       7.77
C       3.49      15.55       8.50
C       0.16      16.33      14.98
C      -0.88      16.34      15.62
C       5.05      16.37      14.84
C       6.14      16.40      15.39
C       0.06      16.18       3.45
C      -1.00      16.17       2.85
C       6.03      16.22       2.91
C       4.96      16.21       3.49
O       8.23      15.48      15.75
O       7.57      17.29      16.98
O       8.10      15.27       2.49
O       7.44      17.11       1.32
O      -2.94      17.30      16.06
O      -2.35      15.38      17.14
O      -3.08      17.09       2.46
O      -2.48      15.18       1.38
