26

H       2.86       4.63       6.78
H       2.78       2.18       6.78
H       7.13       2.24       6.78
H       7.02       4.63       6.78
H       1.81      -2.24       6.78
H       6.16      -2.18       6.78
H       6.08      -4.63       6.78
H       1.92      -4.63       6.78
H       6.91       0.61       6.78
H       2.03      -0.61       6.78
C       3.79       4.05       6.78
C       3.75       2.66       6.78
C       4.94       1.91       6.78
C       6.13       2.67       6.78
C       6.10       4.06       6.78
C       5.00       0.44       6.78
C       3.94      -0.44       6.78
C       2.81      -2.67       6.78
C       4.00      -1.90       6.78
C       5.20      -2.66       6.78
C       5.16      -4.05       6.78
C       2.84      -4.05       6.78
N       4.94       4.74       6.78
N       4.00      -4.74       6.78
O       6.26      -0.11       6.78
O       2.68       0.11       6.78
