26

O       1.63       6.53       0.61
O       2.73       7.70      -1.00
O       7.49       2.71      -0.97
O       6.28       1.63       0.64
H       2.81       4.61      -1.89
H       2.22       4.06      -0.31
H       3.82       2.35      -0.32
H       4.42       2.93      -1.89
H       4.76       3.28       1.81
H       6.05       4.48       1.78
H       3.18       5.00       1.81
H       4.48       6.20       1.75
H       4.65       6.34      -1.99
H       5.33       7.01      -0.52
H       6.93       5.31      -0.48
H       6.27       4.66      -1.96
C       2.60       6.71      -0.19
C       6.50       2.61      -0.17
C       3.12       4.37      -0.86
C       4.18       3.24      -0.86
C       5.48       3.74      -0.17
C       5.13       4.16       1.27
C       4.08       5.29       1.26
C       3.69       5.64      -0.19
C       4.94       6.09      -0.97
C       6.00       4.96      -0.94
