19

H      -4.97      -0.91      14.14
H      -3.39      -2.44      12.85
H      -5.73      -2.28      10.85
H      -8.36      -2.94      13.20
H      -7.61      -4.99      12.64
H      -6.00      -4.51      13.28
H      -6.37      -4.25      11.57
C      -3.94      -3.30      10.27
C      -7.62      -1.00      14.27
C      -5.34      -1.66      13.43
C      -6.70      -1.90      13.47
C      -4.42      -2.28      12.53
C      -4.76      -2.60      11.25
C      -6.81      -4.23      12.59
N      -7.38      -2.95      12.93
O      -7.20       0.16      14.63
O      -4.30      -3.18       9.05
O      -2.93      -4.03      10.65
O      -8.77      -1.48      14.52
