64

H       1.75      16.91       2.78
H      -1.75       7.03      -2.78
H       1.78      14.99       1.19
H      -1.78       8.95      -1.19
H      -0.62      11.91       4.03
H      -1.29      11.37       2.47
H      -3.55      11.10       3.50
H      -2.34      10.11       4.34
H      -2.91      11.63       5.08
H       1.29      12.58      -2.47
H       0.62      12.03      -4.03
H       2.90      12.32      -5.08
H       2.34      13.84      -4.34
H       3.56      12.84      -3.51
H      -0.91      15.07       6.46
H      -1.66      13.60       5.75
H      -3.94      14.50       6.40
H      -2.88      14.23       7.81
H      -3.15      15.88       7.21
H       1.66      10.34      -5.76
H       0.91       8.88      -6.46
H       3.15       8.06      -7.21
H       2.88       9.71      -7.81
H       3.94       9.45      -6.40
C       0.05       6.47      -4.65
C      -0.05      17.48       4.65
C       0.97      16.16       2.81
C      -0.97       7.79      -2.81
C       0.99      15.08       1.94
C      -0.99       8.86      -1.94
C      -0.01      14.10       2.00
C       0.01       9.85      -2.00
C      -1.01      14.18       2.99
C       1.01       9.77      -2.99
C      -1.06      15.30       3.84
C       1.06       8.64      -3.84
C      -0.07      16.30       3.74
C       0.07       7.65      -3.74
C      -1.09      12.81       0.11
C       1.09      11.13      -0.11
C      -1.08      11.80      -0.84
C       1.08      12.15       0.84
C       0.01      10.93      -0.99
C      -0.01      13.01       0.99
C      -1.54      11.87       3.41
C      -2.65      11.14       4.13
C       1.54      12.07      -3.41
C       2.65      12.81      -4.13
C      -1.83      14.66       5.99
C      -3.03      14.84       6.90
C       1.83       9.28      -5.99
C       3.03       9.11      -6.90
O      -1.10       6.03      -5.00
O       1.10      17.91       5.00
O       1.16       5.97      -5.01
O      -1.16      17.98       5.01
O      -1.98      13.23       3.16
O       1.98      10.72      -3.16
O      -2.08      15.39       4.76
O       2.08       8.55      -4.76
F      -2.16      13.64       0.16
F       2.16      10.30      -0.16
F      -2.14      11.68      -1.67
F       2.14      12.26       1.67
