28

C       3.65      11.90      10.33
C      -4.33      12.09      10.28
C      -5.57      12.45       9.71
H       5.81      10.54       8.77
H      -6.22      14.37      10.71
H       5.38      14.16      11.11
H      -5.94      10.93       8.08
C      -1.78      11.70      10.74
C       5.71      13.34      10.49
C      -6.20      11.85       8.60
H       0.82       9.79       9.60
H      -1.54      13.52      11.89
H      -1.66       9.84       9.64
H       0.94      13.47      11.84
C       1.06      11.64      10.69
N       6.96      13.31      10.00
N      -7.22      12.62       8.19
C      -1.09      10.63      10.13
C       0.37      12.67      11.37
C       5.93      11.48       9.30
C      -6.33      13.61       9.94
N       7.10      12.15       9.26
N      -7.31      13.70       9.01
C      -1.02      12.70      11.40
C       0.30      10.60      10.11
C      -3.17      11.85      10.58
C       5.00      12.20      10.07
C       2.46      11.72      10.54
