41

C      11.32      -6.64      13.73
C      12.42      -8.77      13.44
C      10.94     -12.32      22.45
C      11.59      -9.31      14.41
H      10.68      -9.46      24.05
C       9.65      -8.42      17.43
C      10.09      -9.10      16.34
C      10.68      -8.52      15.14
C      10.46     -11.00      22.40
C      12.31      -7.40      13.08
H      13.52      -4.70      12.89
H      13.49      -8.23      10.39
C      13.46      -9.70      12.91
N      11.53     -11.37      24.35
N      14.38      -5.19      11.02
N      14.37      -6.32      10.23
N      11.58     -12.52      23.62
H       9.30     -12.12      20.20
H      11.17      -5.61      13.42
H      10.20     -10.18      16.41
H       9.87      -7.21      19.80
H       9.80      -6.53      15.25
H      10.28      -8.32      21.96
H       9.64      -7.33      17.41
H       8.92     -11.03      18.03
H      11.71     -10.36      14.68
O      13.24     -10.86      12.58
O      14.72      -9.18      12.91
H      10.88     -13.11      21.71
H      15.30      -9.92      12.62
C      10.85     -10.45      23.63
C      13.64      -5.45      12.11
C      13.64      -7.26      10.85
C      13.14      -6.76      12.07
C       9.91     -10.32      21.23
C       9.44     -11.05      20.11
C       9.23     -10.43      18.89
C       9.46      -9.05      18.73
C       9.73      -8.29      19.89
C       9.96      -8.92      21.11
C      10.54      -7.17      14.75
