27

O       8.85       2.09       8.76
O       6.77      12.02       6.15
C       6.69      11.49       4.99
H       4.21       4.04       5.94
O       6.77      12.10       3.87
H       5.52       7.48       2.90
H       5.11       2.22       7.44
C       7.62       2.01       8.43
O       6.79       1.13       8.85
H       6.93       9.79       7.06
C       6.47      10.02       4.97
O       5.58       5.96       4.95
H       5.95       9.92       2.87
C       5.26       4.02       6.26
C       5.82       7.99       3.80
C       6.12       5.03       5.81
C       5.76       3.02       7.08
H       8.13       5.80       5.77
C       7.10       3.03       7.48
H       9.01       4.01       7.29
C       6.63       9.27       6.16
H       6.47       7.34       7.10
C       6.08       9.36       3.80
C       7.47       5.03       6.16
C       7.96       4.03       7.00
C       5.96       7.28       5.00
C       6.37       7.91       6.18
