23

C       4.60       1.68       3.25
H       2.74       0.09       0.89
C       3.61       2.56       3.67
H       4.42      -0.43      -0.24
H       6.61      -0.10       3.49
C       2.11       1.71       2.13
C       6.19      -1.59      -0.09
H       8.05      -2.61       0.28
C       7.44      -1.40       1.97
C       5.36      -0.17       1.71
H       5.58       1.74       3.73
C       3.04       0.79       1.67
C       4.33       0.77       2.22
N       2.38       2.59       3.11
C       5.24      -0.71       0.42
O       5.06      -1.74      -2.20
H       3.78       3.28       4.47
O       6.91      -2.98      -1.89
C       6.03      -2.12      -1.48
C       6.48      -0.52       2.49
H       1.11       1.77       1.70
C       7.30      -1.94       0.69
H       8.31      -1.65       2.57
