66

H       0.39      14.41       1.92
H      -0.65      18.76       4.45
H      -1.14      20.71       2.96
H      -0.47      20.61       0.56
H       0.63      18.63      -0.35
H      -1.57      13.95       2.65
H       1.92      15.96       1.94
H      -4.02      14.30       2.77
H      -5.12      15.92       1.22
H      -3.74      17.17      -0.43
H      -1.31      16.83      -0.54
H       0.48      16.77       3.54
H       2.90      13.94      -2.76
H       3.13      12.73      -4.88
H       1.11      12.09      -6.20
H      -1.15      12.71      -5.34
H      -1.38      13.92      -3.20
H       3.93      16.43      -2.57
H       4.47      17.16      -4.84
H       2.66      17.79      -6.44
H       0.28      17.70      -5.67
H      -0.26      16.97      -3.38
H       2.06      13.29       1.26
H       3.48      14.99       1.12
H      -0.54      15.06      -1.56
H       0.55      16.88      -1.17
C      -0.33      12.87      -0.04
C       3.13      17.37      -0.03
C      -1.25      15.34       1.04
C      -2.05      14.66       1.97
C      -3.43      14.85       2.04
C      -4.05      15.76       1.17
C      -3.27      16.46       0.25
C      -1.89      16.25       0.18
C       0.63      17.53       1.52
C       0.26      17.61       2.88
C      -0.37      18.73       3.39
C      -0.65      19.82       2.56
C      -0.28      19.77       1.22
C       0.35      18.63       0.70
C       0.23      15.02       1.01
C       1.26      16.20       1.10
C       0.74      13.99      -2.80
C       2.00      13.65      -3.30
C       2.13      12.98      -4.51
C       1.01      12.62      -5.25
C      -0.26      12.96      -4.77
C      -0.39      13.64      -3.56
C       1.79      16.63      -2.79
C       3.12      16.71      -3.23
C       3.43      17.12      -4.53
C       2.41      17.47      -5.42
C       1.09      17.42      -4.99
C       0.79      17.01      -3.69
C       2.09      13.62       0.21
C       3.04      14.85       0.13
C       0.52      14.79      -1.52
C       1.32      16.15      -1.43
C       0.65      14.04      -0.17
C       2.23      16.15      -0.16
I       2.75      11.71      -0.64
I       4.95      14.60      -0.92
O      -0.13      12.08       0.94
O       2.93      18.33      -0.83
O      -1.29      12.84      -0.86
O       3.98      17.34       0.93
