34

H       1.80       3.06       4.46
H       1.62       0.94       5.71
H       2.09       3.12       9.41
H       2.09      -3.12       7.04
H       1.61      -0.94      10.75
H       1.80      -3.06      12.00
H       1.84       0.79       9.55
H       1.84      -0.80       6.91
C       2.10      -5.53      11.07
C       2.10       5.53       5.38
C       2.04       4.28       6.21
C       1.86       3.06       5.55
C       1.76       1.87       6.26
C       1.85       1.85       7.67
C       2.00       3.08       8.33
C       2.10       4.26       7.60
C       1.82       0.63       8.46
C       1.82      -0.63       7.99
C       2.00      -3.08       8.13
C       1.85      -1.85       8.79
C       1.76      -1.87      10.20
C       1.86      -3.06      10.91
C       2.04      -4.28      10.25
C       2.10      -4.26       8.85
N       2.32       5.51       8.36
N       2.32      -5.51       8.10
O       1.16      -6.37      10.95
O       3.07      -5.60      11.89
O       1.16       6.37       5.51
O       3.07       5.60       4.56
O       2.91       6.43       7.77
O       1.93       5.54       9.54
O       2.91      -6.43       8.69
O       1.93      -5.54       6.92
