33

C       6.46       3.74       8.00
C       5.13       3.91       7.17
C       7.57       3.46       6.09
H       8.54       3.28       5.62
C       5.85       4.88       6.17
C       5.37       3.16       1.34
C       7.21       4.70       6.97
H       4.83       1.87       5.99
H       5.09       6.87       6.44
C       5.84       3.45       2.67
C       5.31       6.16       5.63
H       6.03       6.64       4.95
H       4.38       5.99       5.07
C       6.06       3.54       3.87
C       8.18       5.75       7.38
C       7.49       1.26       7.65
O       5.75       2.05       0.83
O       6.89       5.44      12.49
O       8.01       3.47      12.41
H       8.64       6.21       6.50
H       7.71       6.54       7.98
H       8.98       5.31       7.99
H       4.16       4.09       7.64
H       7.74       0.55       6.85
H       8.43       1.52       8.18
H       6.84       0.75       8.37
O       4.56       3.99       0.81
C       6.59       3.89       9.40
C       7.22       4.34      11.93
C       6.74       4.08      10.60
C       5.51       2.67       6.30
C       6.24       3.63       5.27
C       6.86       2.50       7.10
