22

H       4.85      12.43      11.48
H       2.07      11.64      13.72
H       0.28      12.91      13.19
H       0.33      11.52      12.06
H      -0.43      13.07      11.56
H       3.83       8.15      11.78
H       5.41       8.28      12.62
H       5.27       8.68      10.86
C       3.43       9.54      14.24
C       3.99      13.80      10.03
C       2.78      12.50      11.84
C       3.90      12.86      11.14
C       2.79      11.52      12.91
C       3.56      10.41      13.01
C       0.39      12.62      12.14
C       4.77       8.71      11.84
O       4.51       9.03      14.69
O       2.26       9.39      14.72
O       5.16      14.29       9.77
O       2.94      14.07       9.35
O       1.60      13.13      11.56
O       4.51      10.11      12.09
