28

C       9.68      -1.59      23.76
C       9.43      -5.90      17.10
H       8.34      -6.82      15.47
C       9.61      -4.74      17.87
H      10.02      -6.79      17.34
C       8.88      -3.58      17.55
O      11.65      -5.40      18.87
C       7.98      -3.59      16.48
O       6.24      -3.66      14.32
H       9.03      -2.67      18.13
H       7.42      -2.70      16.21
O       6.49      -5.91      14.12
C       9.91      -2.42      22.53
C      11.21      -2.63      22.05
H      12.05      -2.19      22.59
O       8.48      -1.41      24.14
C      11.43      -3.39      20.90
O      10.72      -1.13      24.33
H      12.44      -3.57      20.53
H       8.19      -4.14      20.14
C      10.34      -3.92      20.19
C       9.04      -3.71      20.67
H       7.82      -2.83      22.23
C       8.83      -2.98      21.84
C      10.62      -4.74      18.97
C       6.76      -4.78      14.64
C       8.51      -5.92      16.06
C       7.78      -4.76      15.74
