22

C       3.82       6.56      11.64
H       2.13       5.48      10.83
C       2.89       5.51      11.61
H       2.24       3.70      12.59
C       2.96       4.52      12.59
H       5.49       7.37      12.75
C       3.96       4.59      13.57
C       4.75       6.57      12.69
H       2.80       2.04      13.85
N       4.82       5.63      13.62
C       4.18       3.55      14.61
H       3.34       0.40      15.63
H       6.07       2.97      17.39
N       4.73       1.62      16.57
C       3.53       2.31      14.61
H       5.65       4.73      15.67
C       3.83       1.37      15.60
C       5.35       2.81      16.59
O       4.89       8.40      10.57
C       5.10       3.79      15.64
O       2.98       7.65       9.68
C       3.89       7.60      10.57
