20

H      -0.53       0.55       5.30
H      -1.42       0.61       6.86
H      -1.53      -1.91       6.88
H      -0.63      -1.96       5.34
C       1.79       2.18       7.52
C       1.57      -3.69       7.64
C       1.74       0.70       7.61
C       1.61      -2.21       7.68
C       0.68      -0.03       7.07
C       2.67      -1.48       8.28
C       0.62      -1.42       7.10
C       2.73      -0.08       8.24
C      -0.62       0.10       6.30
C      -0.68      -1.48       6.32
O       2.92       2.76       7.57
O       2.67      -4.32       7.73
O       0.42      -4.22       7.48
O       0.66       2.76       7.36
F       3.67      -2.11       8.94
F       3.78       0.49       8.87
