23

O      -1.74      11.56       1.28
O      -2.38       7.85      12.70
O      -4.63       8.07      12.94
C      -3.52       8.20      12.30
C      -3.58       8.75      10.97
C      -2.09       9.65       7.91
C      -1.91       9.89       6.53
C      -4.25       9.31       6.11
C      -4.43       9.08       7.49
C      -3.36       9.27       8.41
C      -3.00       9.77       5.62
C      -2.84      10.15       4.28
C      -3.52       9.01       9.78
C      -2.76      10.59       3.15
C      -2.84      11.28       1.88
C      -1.01       9.81       8.82
C      -0.63      10.25       6.01
C      -5.65       8.55       8.00
I      -5.80       8.97       4.77
N      -0.13       9.99       9.57
N       0.41      10.52       5.56
N      -6.60       8.04       8.44
O      -4.00      11.59       1.51
