16

O       5.11       5.52       8.26
C       4.63       6.58       7.73
O       9.12      11.20       7.18
O       3.47       6.69       7.20
C       7.97      11.30       7.72
H       8.78       8.72       7.70
H       7.33       6.67       7.80
C       6.89       7.67       7.76
C       7.69       8.80       7.72
C       5.49       7.80       7.73
C       7.11      10.08       7.72
C       5.71      10.21       7.73
C       4.91       9.07       7.69
H       3.82       9.16       7.66
H       5.27      11.20       7.75
O       7.48      12.35       8.27
