26

O       6.58       5.60       2.96
O       6.71       7.86       3.10
H       6.76       8.68       5.41
O       7.44      10.36       6.64
O       6.15      10.98       8.30
H       6.62       4.41       5.06
O       7.43       3.55       8.59
O       6.12       2.94       6.94
H       6.77       5.23       9.82
H       6.66       9.50      10.18
C       6.70       8.61       9.55
C       6.69       7.21      11.63
C       6.66       6.70       3.60
C       6.74       7.71       5.89
N       6.76       3.79       7.57
C       6.68       5.30       5.69
C       6.74       5.17       7.05
C       6.78       6.30       7.93
C       6.75       6.20       9.34
C       6.75       8.74       8.18
C       6.78       7.61       7.30
C       6.69       6.58       5.10
C       6.72       7.33      10.13
O       6.60       8.31      12.27
O       6.76       6.05      12.13
N       6.78      10.12       7.66
