30

C       9.48       4.08      10.52
C       6.65       0.57      11.02
C       6.13      -0.72      10.99
C       6.10      -1.44       9.78
C       6.60      -0.85       8.61
C       7.12       0.44       8.65
C       7.15       1.16       9.85
C       4.30      -3.09       9.13
C       3.75      -4.37       9.18
H       7.27       5.72       8.71
H      10.41       4.32      11.03
H       6.67       1.12      11.96
H       5.74      -1.18      11.90
C       5.53      -2.81       9.76
H       6.58      -1.41       7.68
C       6.15      -3.90      10.41
N       8.88       5.08       9.86
H       7.50       0.89       7.73
N       4.37      -5.37       9.83
Cl       5.61       3.43       8.41
Cl       9.78       1.57      11.41
Cl       3.43      -1.86       8.29
H       6.03      -6.01      10.90
Cl       7.69      -3.71      11.17
H       2.80      -4.61       8.71
C       5.56      -5.16      10.42
C       7.72       4.87       9.22
C       7.12       3.61       9.22
C       7.73       2.52       9.88
C       8.93       2.80      10.55
