24

H       8.20       0.99       6.52
H      10.36       0.03       8.09
H       8.77       3.63       7.41
H      10.51       3.98       5.20
H      12.67       3.01       6.76
H      12.10       0.38       5.87
C      11.28       4.14      11.51
C      10.39       0.90       7.43
C       9.19       1.44       6.58
C       9.85       1.10       2.79
C      11.19       3.31      10.35
C      11.37       1.10       6.23
C      10.16       1.64       5.35
C      11.68       2.56       6.70
C      10.71       2.37       7.94
C      10.48       3.11       5.86
C       9.50       2.90       7.05
C       9.95       1.33       3.98
C      10.98       2.81       9.25
C       9.84       0.57       1.46
O       8.68       0.40       0.90
O      10.19       4.53      12.02
O      12.47       4.47      11.91
O      10.95       0.27       0.94
