28

H       5.21      13.82       3.39
H       1.46       8.51      -3.39
H       5.12      12.22       1.44
H       1.55      10.11      -1.44
H       5.83       9.76      -1.36
H       0.84      12.57       1.36
H       5.74       8.17      -3.33
H       0.93      14.16       3.33
C       3.55       7.35      -4.66
C       3.12      14.98       4.66
C       3.60       8.26      -3.48
C       3.07      14.06       3.48
C       2.41       8.80      -2.94
C       4.26      13.53       2.94
C       2.46       9.67      -1.87
C       4.21      12.65       1.87
C       3.70      10.02      -1.31
C       2.97      12.30       1.31
C       4.89       9.48      -1.83
C       1.78      12.85       1.83
C       4.84       8.60      -2.91
C       1.83      13.72       2.91
N       3.87      10.91      -0.22
N       2.80      11.42       0.22
O       2.40       6.99      -5.07
O       4.27      15.34       5.07
O       4.67       7.02      -5.17
O       2.00      15.31       5.17
