32

O       4.08       5.19       9.97
H       3.24       3.98       7.92
O       7.77      -0.60       2.80
H       6.63      -2.79       2.02
H       2.66      -3.99       3.15
H       3.32       0.17       5.34
H       7.26       1.07       7.59
H       7.22       2.98       9.20
H       6.35      -0.10       5.76
H       3.30       2.16       6.24
H       2.49      -2.02       4.66
H       6.29       0.61       3.48
C       4.76      -4.73       1.64
C       5.21       4.71       9.63
C       5.22       3.58       8.66
C       4.11       3.33       7.84
C       4.15       2.30       6.91
C       5.28       1.46       6.81
C       6.38       1.72       7.65
C       6.36       2.77       8.56
C       5.62      -1.48       3.41
C       5.74      -2.64       2.62
C       3.50      -3.30       3.26
C       3.40      -2.19       4.09
C       4.46      -1.27       4.21
C       5.36       0.36       5.86
C       4.34      -0.18       5.16
C       4.68      -3.54       2.55
C       6.64      -0.42       3.23
O       5.91      -5.13       1.28
O       6.34       5.12      10.05
O       3.65      -5.25       1.30
