28

C      18.30       6.41       2.16
C      11.81       2.43      11.52
C      17.58       5.92       3.39
C      12.57       2.85      10.30
C      16.46       5.08       3.27
C      13.83       3.47      10.41
C      15.79       4.64       4.41
C      14.53       3.86       9.28
C      16.25       5.03       5.68
C      13.97       3.63       8.00
H      16.14       4.78       2.28
C      17.39       5.85       5.80
C      12.72       2.99       7.89
H      14.24       3.62      11.41
C      18.04       6.30       4.65
H      14.93       3.98       4.34
H      15.50       4.33       9.34
C      12.02       2.61       9.03
H      17.72       6.13       6.80
H      12.32       2.82       6.89
N      14.57       4.00       6.78
H      18.92       6.94       4.71
H      11.05       2.12       8.98
O      17.81       6.08       1.03
O      12.32       2.72      12.65
O      19.34       7.11       2.36
O      10.71       1.83      11.32
N      15.65       4.66       6.90
