18

H       5.97       3.59      10.93
H       6.53       8.85      13.92
H       6.47       8.26      15.55
C       5.86       5.67       8.97
C       6.40       5.74      16.45
C       6.20       6.84      14.15
C       5.98       4.61      11.29
C       6.25       5.73      15.00
C       5.93       5.70      10.44
C       6.06       5.02      12.64
C       6.08       6.42      12.80
S       6.15       4.20      14.16
S       5.97       7.22      11.28
N       6.20       8.15      14.57
O       5.71       6.79       8.38
O       5.96       4.53       8.41
O       6.33       4.61      17.05
O       6.58       6.88      17.02
