16

O      21.22      28.10      12.56
C      23.03      26.77      13.31
O      26.43      24.28      16.18
C      22.20      27.38      12.20
O      25.09      25.26      17.73
C      25.45      25.00      16.54
F      21.70      27.74      15.06
F      25.95      24.63      13.68
F      23.11      26.71      16.95
F      24.54      25.66      11.79
O      22.56      27.11      11.02
C      24.62      25.60      15.43
C      22.74      26.98      14.67
C      24.91      25.39      14.07
C      23.50      26.42      15.69
C      24.14      25.95      13.05
