26

H      -1.06       4.61      10.44
H      -1.14       5.79       8.26
H       2.72       4.15       7.25
H       2.78       2.97       9.42
O      -0.24       2.86      11.99
H      -0.48       7.38       6.92
O       1.95       2.40      11.73
H      -0.85       8.29       4.64
H       1.51       5.10       2.99
O       0.30       6.56       1.26
H       1.84       4.16       5.24
O      -0.80       8.26       2.18
C       0.86       2.94      11.35
C       0.86       3.71      10.07
C      -0.23       4.52       9.73
C      -0.27       5.19       8.51
C       0.78       5.05       7.58
C       1.88       4.25       7.94
C       1.93       3.60       9.16
C       0.68       5.69       6.25
C      -0.05       6.87       6.06
C      -0.25       7.39       4.79
C       0.30       6.75       3.66
C       1.08       5.61       3.85
C       1.27       5.08       5.12
C      -0.06       7.24       2.30
