28

C       4.37       8.30      28.19
C       2.99       8.17      28.11
C       2.19       9.05      28.87
C       2.84      10.02      29.66
C       4.23      10.10      29.68
C       0.78       8.97      28.84
C      -0.44       8.90      28.81
C      -1.85       8.84      28.77
C      -2.51       8.03      27.83
C      -3.91       7.99      27.78
C      -4.02       9.51      29.56
C      -2.64       9.59      29.66
H       5.03       7.65      27.62
H       2.54       7.41      27.48
H       2.25      10.71      30.26
H      -1.93       7.43      27.12
H      -4.67      10.07      30.22
H      -2.17      10.24      30.41
C       4.94      11.15      30.47
C      -4.62       7.12      26.80
N       4.98       9.23      28.95
N      -4.64       8.74      28.65
H       4.25      11.64      31.17
H       5.79      10.72      31.02
H       5.36      11.91      29.79
H      -4.98       6.20      27.30
H      -5.52       7.62      26.42
H      -3.96       6.83      25.98
