18

H      30.04      17.98      24.87
H      30.21      19.68      24.54
O      29.65      22.86      26.87
O      29.55      15.65      31.50
O      30.12      21.67      24.97
O      29.75      14.33      29.64
N      30.24      18.91      25.21
C      29.96      19.23      26.50
C      29.87      21.76      26.24
S      29.54      20.61      28.72
S      29.90      16.57      27.69
C      29.49      17.96      29.87
H      29.33      18.19      30.92
C      29.82      20.54      27.00
C      29.64      16.66      29.40
C      29.59      18.89      28.82
C      29.82      18.29      27.56
C      29.64      15.45      30.24
