23

C       5.50      15.71       9.86
C       4.65      11.85       5.63
C       6.03      16.18      12.18
H       6.23      15.87      13.20
C       4.50      12.57       8.04
H       4.09      11.58       8.25
H       5.28      17.53       8.68
C       5.51      17.10       9.66
C       5.33      14.16       6.42
H       5.57      14.40       5.39
C       5.78      15.27      11.17
H       5.82      14.20      11.40
C       5.55      15.08       7.44
H       6.00      16.05       7.21
C       5.79      17.96      10.71
H       5.81      19.04      10.58
C       4.70      13.49       9.05
H       4.41      13.24      10.07
N       6.04      17.51      11.95
O       4.81      12.22       4.42
C       4.82      12.88       6.71
O       4.38      10.67       6.02
C       5.24      14.76       8.77
