16

O       2.25       2.76       8.13
O       1.04       3.70       6.45
O      -3.05      -1.88       8.80
O      -1.77      -2.81       7.17
C      -0.94      -0.16       6.48
C      -0.18       0.99       6.32
C       0.28       1.67       7.46
C      -0.11       1.25       8.74
H       0.12       1.33       5.33
H      -1.24      -0.76       5.61
C      -1.34      -0.58       7.76
C      -0.96       0.16       8.89
C      -2.11      -1.85       7.92
H       0.27       1.78       9.61
H      -1.29      -0.16       9.87
C       1.26       2.79       7.34
