16

F       7.68       5.88       2.52
C       8.96       5.64       2.92
C       9.50       6.42       3.93
C      10.80       6.13       4.36
C      11.55       5.11       3.76
H       8.93       7.22       4.38
H      12.56       4.90       4.11
H       9.19       4.00       1.54
C      10.98       4.36       2.73
C       9.66       4.60       2.31
C      11.72       3.21       2.11
C      11.37       6.94       5.48
O      11.31       2.07       2.50
O      12.64       3.45       1.27
O      10.92       8.13       5.61
O      12.24       6.39       6.23
