24

H       1.48       7.52      25.53
H      -1.48       3.85      26.92
C      -0.61       2.72      21.74
C       0.61       8.65      30.72
C      -0.63       6.47      25.32
C       0.63       4.90      27.13
C       0.82       6.71      25.84
C      -0.82       4.67      26.62
C       0.64       7.90      29.49
C      -0.64       3.47      22.97
C      -1.13       6.18      26.79
C       1.13       5.19      25.67
C       0.34       6.46      27.32
C      -0.34       4.92      25.13
C       0.60       7.24      28.47
C      -0.60       4.13      23.99
Br      -1.52       7.57      24.05
Br       1.52       3.80      28.40
Br       2.66       4.44      24.83
Br      -2.66       6.93      27.63
O      -1.73       2.46      21.19
O       1.73       8.91      31.26
O       0.54       2.39      21.31
O      -0.54       8.98      31.15
