26

O       1.53       6.54       0.56
O       2.69       7.75      -0.98
H       2.70       4.59      -1.87
H       2.12       4.08      -0.28
H       3.71       2.37      -0.25
H       4.29       2.89      -1.84
O       7.45       2.76      -0.86
H       4.68       3.34       1.84
H       3.12       5.08       1.82
H       4.42       6.26       1.71
H       4.56       6.32      -2.04
H       5.25       7.01      -0.58
O       6.14       1.60       0.60
H       5.98       4.53       1.77
H       6.84       5.30      -0.52
H       6.16       4.62      -1.99
C       2.52       6.74      -0.22
C       6.41       2.61      -0.14
C       3.02       4.37      -0.84
C       4.07       3.24      -0.82
C       5.38       3.75      -0.17
C       5.06       4.20       1.27
C       4.01       5.34       1.24
C       3.60       5.66      -0.21
C       4.85       6.08      -1.01
C       5.90       4.95      -0.97
