16

C       7.52       7.86      18.30
S       7.59       5.10      18.33
S       7.41       4.36      22.43
C       7.49       1.59      22.42
C       7.44       6.52      20.52
C       7.56       2.92      20.24
C       7.51       6.65      19.13
C       7.50       2.82      21.62
C       7.54       4.27      19.83
C       7.46       5.17      20.92
H       7.62       2.05      19.59
O       7.42       1.74      23.69
Br       7.34       7.90      21.78
O       7.57       7.67      17.03
O       7.47       8.98      18.90
O       7.56       0.48      21.78
