18

O      18.21       8.38      30.75
O      19.89       8.79      29.39
C      17.72       9.18      28.67
C      14.54      10.87      28.38
C      17.87       9.19      27.28
C      14.40      10.83      29.75
O      13.37      11.19      31.81
C      15.74      10.25      27.99
S      16.54       9.95      26.49
S      15.72      10.04      30.58
C      18.90       8.58      26.40
O      19.64       7.67      26.89
O      18.90       9.01      25.20
C      13.28      11.36      30.55
O      12.34      11.95      29.91
C      16.49       9.76      29.08
N      18.69       8.74      29.66
H      13.80      11.33      27.72
