51

S       2.33       9.69      13.57
C       1.28       8.89      16.01
H      -2.01      10.74      21.39
S       3.14      12.18      18.27
C       2.05      11.17      19.17
N      -1.36      12.70      21.20
C       4.04      10.85      17.68
C       4.82       6.47      16.58
H       5.62       8.30      14.11
N       5.63      10.75       9.48
H       3.73      11.51       9.05
C       4.59       8.65      14.16
H       1.49      13.81      19.80
C       3.76       8.46      15.30
F       3.90       5.50      16.22
C       4.34      10.96       9.77
F       5.87       6.33      15.71
C       0.89      11.71      19.86
F       3.33       6.72      19.42
C       0.72      13.09      20.09
H      -0.07       9.77      20.17
F       5.16       7.87      19.88
H      -0.60      14.60      20.93
F       5.08       4.99      18.50
F       6.60       6.57      18.17
H       2.71      10.75      11.11
H       1.88       9.03      19.52
C       2.47       8.97      15.11
H       7.44       9.93      10.08
C       4.53       9.79      11.87
H       5.86      10.20      16.79
H       5.77      11.95      17.03
C      -0.13      10.85      20.32
H       4.86      11.18      15.71
C      -0.41      13.54      20.74
H       6.55       9.02      12.21
H       1.31       7.99      16.62
C       3.76      10.51      10.94
C       5.88       9.56      11.54
C       2.42       9.85      19.04
H       0.35       8.87      15.42
C       4.43       7.32      18.85
H       1.23       9.76      16.69
C       6.39      10.06      10.35
C       3.97       9.33      13.13
C       5.27       6.26      18.06
C      -1.22      11.37      20.99
C       5.19      11.06      16.76
C       4.20       7.84      16.55
C       3.53       9.65      18.18
C       4.03       8.33      17.81
