28

O       1.05      27.43      24.97
O       2.90      28.09      23.84
H       2.74      16.70      20.35
H       2.67      18.85      21.63
H       1.22      18.73      16.86
H       1.22      24.81      25.04
O       1.05      16.11      16.94
H       2.67      24.69      20.28
O       2.90      15.45      18.06
H       2.74      26.84      21.55
F       1.23      21.09      17.96
F       1.23      22.46      23.94
C       1.98      27.25      24.11
C       1.98      16.29      17.79
C       1.98      17.58      18.54
C       2.41      17.62      19.87
C       2.38      18.81      20.58
C       1.98      20.02      19.95
C       1.60      19.94      18.60
C       1.56      18.75      17.90
C       1.98      21.25      20.64
C       1.98      22.30      21.26
C       1.98      23.52      21.95
C       1.60      23.60      23.31
C       1.56      24.79      24.01
C       1.98      25.96      23.37
C       2.41      25.92      22.03
C       2.38      24.73      21.33
