19

C      16.77      11.08       4.80
C      19.95      11.96       3.31
C      16.64      12.39       5.26
C      20.08      10.66       2.83
C      18.75      12.11       4.03
C      17.98      10.92       4.09
C      15.81       9.96       5.09
H      20.70      12.72       3.12
S      17.98      13.41       4.85
S      18.75       9.62       3.26
H      15.08      10.27       3.34
C      15.52      12.95       6.02
C      21.18      10.13       2.01
O      14.48      12.22       6.14
O      15.68      14.14       6.47
O      21.08       8.90       1.67
O      22.12      10.94       1.72
O      14.96       9.64       4.07
O      15.82       9.32       6.12
