52

H       6.90       6.79      14.07
H       2.35       8.38      17.52
H       2.19       6.17      24.61
H       0.07       8.40      18.50
H      -1.54       6.59      17.94
H      -0.87       4.77      16.38
H       1.42       4.75      15.40
H       7.67       8.21      23.28
H       9.96       8.19      22.31
H      10.64       6.37      20.74
H       9.02       4.56      20.18
H       6.74       4.58      21.16
H       6.71       6.87      16.58
H       2.38       6.09      22.10
H       2.64       6.45      13.79
H       6.46       6.51      24.89
C       4.87       6.53      12.29
C       4.22       6.43      26.39
C       5.93       6.72      14.57
C       3.16       6.24      24.11
C       5.82       6.77      15.96
C       3.27       6.19      22.73
C       4.57       6.65      16.58
C       4.52       6.31      22.10
C       3.40       6.55      15.80
C       5.70       6.41      22.88
C       3.53       6.51      14.41
C       5.57       6.45      24.27
C       4.78       6.57      13.79
C       4.32       6.39      24.89
C       4.55       6.38      20.63
C       4.54       6.58      18.05
C       2.04       6.56      16.40
C       1.65       7.58      17.28
C       0.36       7.59      17.83
C      -0.54       6.58      17.51
C      -0.17       5.57      16.63
C       1.12       5.56      16.07
C       7.05       6.40      22.28
C       7.98       7.40      22.61
C       9.26       7.39      22.06
C       9.64       6.38      21.17
C       8.73       5.37      20.85
C       7.44       5.38      21.40
N       3.71       5.67      18.62
N       5.38       7.29      20.06
N       3.72       5.57      19.94
N       5.38       7.39      18.74
O       6.05       6.50      11.79
O       3.05       6.46      26.89
O       3.78       6.52      11.64
O       5.31       6.44      27.04
