38

C       2.16       8.76       9.73
C       3.22       7.88      10.29
C       3.04       6.50      10.38
C       4.06       5.67      10.84
C       5.30       6.22      11.23
C       5.48       7.61      11.13
C       4.46       8.43      10.67
C       6.38       5.37      11.78
C       6.55       4.04      11.37
C       7.59       3.27      11.91
C       8.48       3.82      12.85
C       8.33       5.15      13.26
C       7.28       5.90      12.73
C       7.82       1.87      11.47
C       9.28       5.76      14.21
C       8.85       6.71      15.15
C      10.65       5.42      14.18
C      11.56       6.05      15.02
C      11.12       7.04      15.92
C       9.75       7.33      16.00
C      12.11       7.74      16.77
O       1.07       8.24       9.31
O       2.36      10.03       9.65
O       6.98       1.29      10.68
H       2.08       6.07      10.10
H       3.90       4.60      10.91
H       6.44       8.05      11.37
H       4.62       9.50      10.58
H       5.90       3.60      10.62
H       9.27       3.20      13.26
H       7.15       6.93      13.05
O       8.87       1.24      11.81
H       7.78       6.93      15.25
H      11.01       4.67      13.48
H       9.39       8.03      16.76
H       5.49       5.81      14.98
O       6.21       7.41      16.73
O      11.72       8.71      17.56
