36

H      26.72       4.34      13.59
H      24.85       2.86      17.16
O      25.16       2.54      13.21
O      24.32       1.59      15.10
H      27.93       6.05      14.91
H      26.03       4.59      18.50
H      29.61       6.30      16.46
H      26.08       6.94      18.83
H      30.78       8.09      17.73
O      24.01      10.74      24.01
C      25.01       2.46      14.48
C      25.71       3.49      15.29
C      26.58       4.40      14.67
C      25.52       3.57      16.68
O      25.55      12.38      23.68
C      27.26       5.35      15.41
C      26.18       4.55      17.42
C      27.06       5.45      16.80
C      27.77       6.49      17.58
C      29.09       6.83      17.26
C      27.13       7.17      18.62
C      29.75       7.83      17.98
H      24.63       8.60      22.79
H      26.93      12.07      21.77
H      25.84       7.28      21.07
H      28.11      10.78      19.99
H      29.63       9.27      19.58
C      25.04      11.23      23.44
C      25.72      10.42      22.39
C      25.40       9.07      22.18
C      26.71      11.02      21.60
C      26.07       8.34      21.20
C      27.36      10.29      20.62
C      27.06       8.93      20.40
C      27.77       8.18      19.35
C      29.10       8.50      19.01
