47

C      13.74      15.68      15.06
C      13.41      15.14      13.72
B      10.86      15.42      14.07
C      14.29      14.68      12.70
C      13.51      14.24      11.61
C      14.01      13.59      10.36
C      12.15      14.48      11.98
C      10.96      14.32      11.26
C      11.03      13.88       9.83
H      13.98      14.85      15.74
C      10.94      12.53       9.48
H      14.64      16.31      15.01
C      11.02      12.15       8.14
H      12.90      16.25      15.48
C      11.17      13.11       7.14
H      15.09      13.45      10.41
C      11.26      14.47       7.49
H      13.52      12.62      10.20
C      11.19      14.85       8.83
C       9.72      14.61      11.84
H      13.77      14.20       9.48
C       8.39      14.50      11.32
H      10.82      11.78      10.26
C       7.97      14.06       9.96
H      10.98      11.09       7.88
C       7.54      14.84      12.39
H      11.25      12.81       6.10
C       8.35      15.19      13.51
H      11.39      15.22       6.71
C       7.94      15.69      14.85
H      11.26      15.90       9.10
C       6.06      14.79      12.38
H       6.89      14.18       9.85
H       8.47      14.66       9.18
N       9.64      15.05      13.17
H       8.24      13.01       9.77
N      12.14      15.01      13.28
H       8.42      16.65      15.07
H       6.85      15.80      14.89
O      16.31      14.88      13.92
H       8.27      15.00      15.63
O      16.40      14.67      11.66
O       5.49      14.54      13.50
O       5.45      14.99      11.28
F      10.80      14.70      15.28
F      10.87      16.81      14.33
C      15.77      14.73      12.77
