28

C      14.26       7.01      30.02
C      18.66      10.83      26.23
N      11.65       8.80      28.05
N      21.28       8.88      28.02
H      11.77      10.13      26.46
H      14.27      10.18      26.45
H      11.70       7.42      29.60
H      21.21      10.41      26.61
H      21.18       7.33      29.40
H      18.67       7.29      29.44
C      12.35       9.55      27.17
C      13.73       9.57      27.17
C      14.44       8.79      28.11
C      13.70       7.97      29.01
H      15.94       7.97      29.99
H      16.92      10.65      27.07
C      12.30       8.03      28.93
C      15.85       8.83      28.11
C      17.07       8.90      28.05
O      15.53       7.20      30.45
O      13.59       6.09      30.46
O      17.35      11.17      26.36
O      19.35      11.35      25.38
C      18.49       8.92      28.01
C      19.22       9.81      27.19
C      20.62       9.74      27.24
C      20.58       8.02      28.80
C      19.20       8.01      28.82
