36

N      17.60       6.98       2.69
H      22.22       4.38       3.32
H      17.96       4.75       4.00
N      22.59       6.68       2.15
H      22.15       0.37       5.19
N      22.43      -2.01       6.18
N      17.75      -1.11       7.83
H      18.04       1.01       6.37
O      18.97      -3.54       7.88
O      21.22      -3.37       8.20
O      21.04       8.40       0.83
O      19.15       9.02       1.96
C      20.09      -2.96       7.77
C      20.09       8.22       1.67
O      17.17       6.99       1.54
O      17.01       7.38       3.70
O      23.01       7.67       2.77
O      23.17       6.05       1.27
O      17.89      -1.18       9.06
O      16.70      -1.19       7.20
O      22.30      -3.08       5.58
O      23.49      -1.52       6.59
C      20.09       6.90       2.38
C      18.92       6.34       2.91
C      18.90       5.14       3.59
C      20.09       4.41       3.75
C      21.29       4.93       3.22
C      21.27       6.16       2.58
C      20.09       3.17       4.42
C      20.09       2.10       5.01
C      20.09       0.86       5.69
C      18.94       0.41       6.36
C      18.97      -0.80       7.04
C      20.09      -1.65       7.05
C      21.21      -1.18       6.35
C      21.25       0.05       5.70
