36

H       8.33       1.39      13.84
H       6.12       1.11      13.79
H       8.27      -0.90      14.13
H       5.67      -1.16      13.64
H       5.19      -1.09      11.94
H       9.40      -1.11      12.78
H       8.55      -1.20      10.42
H       6.82      -1.42      10.10
H       8.23       1.08      10.04
H       6.48       0.89      10.00
H       3.58       1.86      10.88
H      11.18       1.09      11.12
C       7.40      -5.38      12.19
C       7.17       5.40      11.65
C       8.44      -0.66      13.07
C       5.94      -0.75      12.66
C       6.00       0.80      12.74
C       8.47       0.88      12.88
C       7.17       3.96      11.72
C       7.32      -1.29      12.21
C       7.26       1.31      11.97
C       7.38       0.64      10.57
C       7.54      -0.88      10.73
C       7.22       2.76      11.83
C       7.35      -2.74      12.30
C       7.37      -3.95      12.32
C       4.66       1.38      12.34
C       9.80       1.40      12.38
O       8.55      -5.91      12.03
O       6.28      -6.00      12.21
O       8.29       5.97      11.78
O       6.03       5.97      11.49
O       3.80       1.69      13.14
O       4.47       1.46      10.99
O      10.39       2.37      12.83
O      10.33       0.67      11.34
