17

H      11.46      13.33      17.14
C      10.84      12.95      19.43
C      12.69      14.10      21.19
C      11.97      13.65      18.92
C       9.85      12.33      18.54
C      11.58      13.41      21.70
C      12.89      14.22      19.81
C      10.67      12.84      20.83
O      12.21      13.80      17.60
O       8.87      11.71      19.05
H      11.45      13.33      22.78
H      13.75      14.76      19.42
H       9.80      12.30      21.20
C      13.69      14.72      22.12
O      13.47      14.57      23.37
O      14.67      15.34      21.59
O      10.05      12.46      17.26
