15

C       8.94       2.82       4.80
H       9.70       2.14       4.38
O       6.52       3.08       6.67
H       7.97       2.60       4.35
C       7.71       3.48       6.88
C       8.70       1.18       6.68
O       9.58       0.61       7.37
C       8.91       2.68       6.33
O       7.95       4.52       7.56
H      10.26       3.07       8.01
H      11.06       2.62       6.50
H      10.36       4.25       6.69
H       9.20       3.85       4.52
C      10.22       3.19       6.92
O       7.66       0.58       6.22
