20

H       8.50       9.90      13.12
H       8.56       9.97      11.34
H       8.53      12.47      11.41
H       8.45      12.43      13.19
O       4.34       7.58      12.19
O       6.60       7.65      12.01
C       5.45       8.19      12.10
O       6.56      14.65      12.22
C       5.41      14.11      12.16
O       4.29      14.72      12.10
C       5.41       9.68      12.11
C       5.38      12.62      12.16
C       6.57      10.47      12.17
C       4.21      11.84      12.10
C       6.55      11.86      12.20
C       4.22      10.44      12.08
C       8.08      10.39      12.23
C       8.06      11.97      12.27
F       2.98      12.42      12.06
F       3.00       9.85      12.02
