28

O       5.52       8.45      10.65
O       4.89       7.37      23.79
O       5.98       6.23      10.68
H       4.49       9.15      12.83
H       6.85       5.57      12.93
H       4.02       8.03      21.53
H       6.67       5.51      15.44
H       4.20       8.09      19.02
H       6.59       4.52      19.12
H       4.28       9.08      15.34
H       6.38       4.45      21.64
C       5.13       6.25      23.23
C       5.74       7.35      11.24
C       5.20       6.24      21.73
C       5.67       7.35      12.74
C       4.58       7.27      20.99
C       6.29       6.33      13.47
C       4.68       7.30      19.61
C       6.02       5.27      19.67
C       6.19       6.29      14.86
C       5.42       6.32      18.94
C       5.45       7.28      15.53
C       4.85       8.32      14.80
C       5.91       5.24      21.06
C       4.96       8.36      13.41
N       5.64       6.28      17.54
N       5.23       7.31      16.92
O       5.35       5.14      23.82
