24

H       1.93      11.76       7.70
H       1.93      15.74       5.97
H       9.03      11.85       7.69
H       8.99      15.80       5.89
H       6.72      11.93       7.89
H       4.28      11.89       7.89
H       4.22      15.69       5.85
H       6.66      15.72       5.83
N       0.42      13.11       7.08
N       0.43      14.36       6.52
N      10.52      13.19       7.01
N      10.50      14.43       6.43
C       1.71      12.74       7.28
C       2.58      13.76       6.85
C       1.71      14.75       6.38
C       9.24      12.82       7.24
C       8.36      13.83       6.81
C       9.22      14.82       6.31
C       6.90      13.82       6.85
C       6.18      12.76       7.43
C       4.79      12.74       7.43
C       4.04      13.78       6.86
C       4.76      14.85       6.30
C       6.15      14.87       6.29
