65

P      10.03       6.22       0.55
P      11.04       2.32       4.60
H      10.02       3.62       2.07
H      12.34       4.63       5.55
H      11.39       7.66       2.62
H      14.21       5.91       5.73
H      15.40       7.70       6.98
H      12.73      10.60       5.74
H      11.37       8.93       4.47
H       8.76       5.01      -1.82
H       9.51       3.25      -3.39
H      11.65       2.05      -3.01
H      13.04       2.60      -1.01
H      12.29       4.35       0.58
H       8.17       8.20       1.34
H       5.77       8.18       1.99
H       4.46       6.08       1.80
H       5.56       3.98       1.04
H       7.97       3.98       0.45
H      12.53       2.38       2.01
H      14.46       1.06       1.18
H      15.54      -0.63       2.65
H      14.72      -0.95       4.99
H      12.83       0.42       5.83
H       8.19       2.71       4.70
H       6.27       1.75       3.48
H       6.64      -0.00       1.74
H       8.96      -0.76       1.23
H      10.88       0.24       2.41
N      14.12       9.22       6.41
C      10.68       5.68       2.19
C      10.57       4.36       2.65
C      11.16       3.99       3.86
C      11.88       4.93       4.61
C      11.96       6.26       4.18
C      11.33       6.63       2.98
C      12.69       7.27       4.97
C      13.83       6.94       5.70
C      14.51       7.93       6.40
C      13.00       9.54       5.72
C      12.27       8.61       5.00
C      10.46       4.79      -0.49
C       9.69       4.47      -1.63
C      10.12       3.49      -2.52
C      11.32       2.81      -2.30
C      12.10       3.12      -1.18
C      11.67       4.10      -0.29
C       7.60       7.27       1.28
C       6.25       7.26       1.63
C       5.51       6.08       1.53
C       6.13       4.90       1.10
C       7.49       4.90       0.77
C       8.22       6.10       0.85
C      12.52       1.45       3.97
C      13.01       1.65       2.66
C      14.09       0.90       2.19
C      14.70      -0.05       3.02
C      14.23      -0.23       4.32
C      13.16       0.52       4.80
C       9.68       1.55       3.64
C       8.36       1.96       3.94
C       7.28       1.41       3.25
C       7.49       0.44       2.27
C       8.79       0.01       1.98
C       9.88       0.57       2.66
