27

C      -1.34       4.82      12.81
C      -2.55       4.15      13.03
C      -3.75       4.85      13.09
C      -3.75       6.24      12.93
C      -2.55       6.93      12.70
C      -1.36       6.22      12.65
C      -0.04       4.11      12.79
C      -4.97       8.25      12.71
C      -5.11       8.66      11.38
C      -5.05      10.03      11.10
C      -4.84      10.96      12.13
C      -4.73      10.51      13.46
C      -4.80       9.15      13.75
C      -4.77      12.42      11.81
H      -4.59      11.24      14.25
H      -2.54       3.07      13.14
H      -4.70       4.34      13.26
O      -4.98       6.88      12.99
H      -0.42       6.73      12.48
O      -0.04       2.81      12.81
O       1.05       4.76      12.79
O      -4.96      12.74      10.59
H      -4.69       8.78      14.77
H      -2.55       8.01      12.57
H      -5.25       7.92      10.60
H      -5.14      10.39      10.08
O      -4.53      13.22      12.77
