16

C      27.11      13.86      14.28
O      28.28      13.45      14.63
O      26.00      13.32      14.58
S      28.61      15.83      13.08
S      25.60      18.14      11.32
C      27.14      20.11      10.14
C      27.81      17.08      12.20
Br      24.18      15.32      13.07
O      26.00      20.55       9.75
O      28.29      20.63       9.91
C      26.00      15.76      12.92
C      28.22      18.22      11.47
C      27.08      15.08      13.46
C      27.13      18.89      10.95
H      29.24      18.57      11.33
C      26.42      16.90      12.20
