27

C       1.79       1.77       2.83
O       0.39       0.39       1.46
H       4.19       3.68       4.35
C       3.06       2.42       3.03
O       2.40       0.86       0.71
H       0.21       2.71       5.72
C       3.23       3.17       4.22
H      -0.16       1.39       3.66
C       2.23       3.29       5.17
O       4.16       6.35      10.58
C       0.99       2.64       4.96
O       2.33       7.56      10.03
H       0.49       5.03       6.34
O       4.06       2.36       2.17
H       4.89       4.91       8.64
C       0.79       1.90       3.82
H       4.49       3.42       6.68
C       2.46       4.11       6.38
O       0.67       6.62       8.33
C       1.45       4.96       6.85
C       1.68       5.81       7.95
C       2.93       5.76       8.63
C       3.92       4.90       8.14
C       3.71       4.09       7.04
C       3.17       6.61       9.82
H       1.05       7.20       9.06
C       1.51       0.99       1.64
