42

N       7.21      13.81       9.45
H       6.14      13.55       7.63
N       6.95      14.50      10.61
N      -7.28      14.01       8.53
H      -1.30      17.18       7.45
N      -7.18      15.34       8.87
H       0.95      17.41       8.07
H       1.17      14.03       9.57
H      -1.20      15.76       9.58
O       3.21      14.81       5.36
H       1.54      13.22       7.28
H      -0.76      13.92       5.72
H       1.36      16.96       6.41
H      -0.87      16.43       5.91
O       1.73      12.92       4.62
O       0.98      15.27       4.42
H      -1.18      14.00       9.47
F      -5.81      12.40       7.72
F       1.09      15.96      10.14
F      -0.72      12.66       7.29
H       5.35      15.73      11.28
H       0.57      14.77       3.68
H      -5.66      16.81       8.82
C      -5.94      15.78       8.64
C       6.17      14.00       8.61
C      -5.14      14.72       8.15
C       5.21      14.83       9.22
C       0.82      16.63       7.31
C       0.75      14.97       9.19
C      -0.76      14.92       9.04
C      -3.79      14.76       7.79
C       1.45      15.33       7.84
C      -0.68      16.40       6.99
C      -1.16      15.03       7.55
C      -0.42      13.93       6.76
C       1.11      14.15       6.88
C      -2.61      14.88       7.50
C       2.87      15.37       8.16
C       3.95      15.16       8.68
C       5.76      15.12      10.48
C      -6.06      13.65       8.13
S       1.91      14.22       5.24
