38

H       1.20       7.05       1.79
H       8.32       2.85      -2.45
H       5.64       3.04       0.90
H       7.45       1.92      -0.28
H       5.47       6.56      -3.40
H       6.68       6.02       1.98
H       8.47       4.81       3.19
H       7.94       2.69       4.41
H       5.56       1.88       4.48
H       3.80       3.07       3.21
H       3.47       7.55      -2.34
H       1.86       7.63      -0.55
C       6.88       4.43      -2.50
C       7.28       4.77      -3.90
C       2.61       5.77       3.61
C       5.42       4.68      -0.51
C       2.46       6.94       0.05
C       2.96       5.87       2.15
C       7.50       3.34      -1.91
C       7.03       2.83      -0.70
C       6.01       3.48      -0.02
C       5.12       4.61       2.49
C       6.44       5.11       2.53
C       5.82       5.11      -1.82
C       7.44       4.43       3.22
C       7.14       3.25       3.90
C       5.82       2.78       3.92
C       4.82       3.45       3.22
C       4.39       5.42       0.21
C       3.61       6.36      -0.53
C       4.03       6.76      -1.84
C       5.13       6.21      -2.43
C       4.13       5.29       1.61
C       2.10       6.64       1.34
O       8.52       4.79      -4.19
O       6.33       4.98      -4.73
O       3.55       5.88       4.46
O       1.37       5.61       3.89
