16

C      11.11      11.24      13.05
O       7.06       6.29      12.08
O      11.93      11.20      12.08
O       6.19       7.14      14.01
I       8.40      12.39      11.80
O      11.07      12.07      14.01
I      12.28       8.53      14.29
C       8.77      10.46      12.55
C      10.05      10.17      13.05
C       8.08       8.18      13.05
C      10.35       8.89      13.55
C       9.36       7.89      13.55
I       9.73       5.96      14.29
C       7.78       9.46      12.55
I       5.84       9.81      11.80
C       7.02       7.11      13.05
