18

C      18.76      12.10       3.98
C      18.01      10.91       4.00
H      20.73      12.75       3.13
C      16.61      12.34       5.20
O      16.30       8.82       4.65
O      14.82      12.05       6.69
O      15.61      14.15       6.27
O      14.60      10.23       4.63
O      21.17       8.92       1.68
O      22.21      10.96       1.74
S      17.96      13.36       4.84
S      18.80       9.63       3.18
C      15.59      12.88       6.12
C      21.25      10.15       2.01
C      16.77      11.06       4.66
C      19.98      11.98       3.28
N      15.80       9.97       4.67
C      20.12      10.69       2.79
