20

H      13.80       7.64       9.91
H      15.62       9.28       8.54
N      11.16       7.37       7.82
N      18.25       7.23       7.99
Cl      11.03       7.88      10.39
Cl      18.38       9.67       8.94
Cl      10.90       6.91       5.27
Cl      18.50       4.78       7.12
Cl      14.02       7.01       5.08
Cl      15.38       4.63       7.09
C      13.27       7.51       8.97
C      16.15       8.37       8.27
C      11.88       7.56       8.94
C      17.54       8.31       8.35
C      11.83       7.16       6.67
C      17.58       6.14       7.57
C      13.23       7.15       6.59
C      16.18       6.08       7.50
C      13.97       7.29       7.78
C      15.45       7.24       7.83
