40

C      11.19      26.35      17.49
C       9.05      24.98      12.98
C      14.57      27.84      15.39
C      12.76      25.68      11.04
H       7.11      24.31      14.60
H       8.81      25.68      18.33
H      15.01      26.67      10.14
O      18.19      28.23      11.93
H      16.64      28.20      13.83
O      17.19      27.79       9.92
H      12.44      25.22      16.54
H       9.82      26.74      12.77
H      12.76      28.47      15.10
H      12.53      24.43      12.49
O       5.73      23.87      16.60
O       6.45      24.97      18.46
C      17.21      27.86      11.20
C       6.58      24.57      17.25
O      12.44      25.84      17.30
O      10.98      27.15      18.38
O       9.48      26.02      12.21
O       8.60      23.97      12.47
O      13.43      28.45      15.81
O      15.51      27.70      16.14
O      12.22      24.56      11.58
O      12.48      26.03       9.91
C       7.83      24.96      16.54
C       7.93      24.76      15.16
C       9.08      25.17      14.47
C      10.19      25.69      15.19
C      10.09      25.83      16.61
C       8.89      25.51      17.25
C      11.38      26.06      14.52
C      12.41      26.37      13.93
C      13.60      26.74      13.25
C      13.77      26.43      11.87
C      14.92      26.85      11.21
C      15.96      27.47      11.91
C      15.82      27.74      13.28
C      14.64      27.43      13.94
