20

H       0.95       5.38       6.49
H      -0.96       7.94       9.70
H       0.95       9.00       8.86
H      -0.96       6.43       5.64
H       3.46       5.46       6.54
H      -3.46       7.91       9.61
H       3.46       8.92       8.81
H      -3.46       6.47       5.73
C       1.46       6.19       7.00
C      -1.46       7.62       8.79
C       1.46       8.19       8.34
C      -1.46       6.76       6.55
C       2.85       6.22       7.03
C      -2.85       7.60       8.76
C       2.85       8.16       8.31
C      -2.85       6.78       6.59
C       0.74       7.19       7.67
C      -0.74       7.19       7.67
N       3.53       7.19       7.67
N      -3.53       7.19       7.67
