16

C       3.70       0.57      14.47
C       6.17      -0.65      14.51
C       3.79      -0.81      14.48
C       6.09       0.74      14.50
H       2.88      -1.42      14.48
H       6.99       1.34      14.51
O       6.18      -3.55      14.55
O       3.91      -3.53      14.44
O       3.71       3.48      14.40
O       5.97       3.45      14.57
C       5.05      -2.96      14.50
C       4.83       2.89      14.48
F       2.45       1.11      14.46
F       7.42      -1.18      14.53
C       4.84       1.38      14.48
C       5.03      -1.46      14.50
