20

H      23.35       9.77       9.27
H      21.21      12.25      13.50
H      20.32      10.71      13.58
H      22.14       9.73      15.04
H      23.03      11.27      14.95
C      25.25       8.87      13.52
Cl      25.57       8.55      10.30
O      25.01       9.02      14.77
O      26.27       8.30      13.02
C      21.11      11.09       9.99
O      21.28      10.96       8.74
O      20.12      11.64      10.58
C      22.16      10.53      10.89
C      24.24       9.42      12.58
C      22.11      10.63      12.28
C      24.28       9.33      11.16
C      23.12      10.09      13.08
C      23.27       9.87      10.35
C      21.31      11.16      13.45
C      22.45      10.55      14.37
