24

N      12.57       8.53       2.80
N      20.52      11.85      -3.24
N      12.59       7.27       3.24
H      16.94      12.71      -1.35
H      19.48       8.32      -1.35
O      15.85      10.79       0.00
H      16.17       6.41       1.35
O      17.27       8.33      -0.00
H      13.63      10.80       1.35
C      18.71      11.62      -2.05
C      17.50      11.77      -1.36
C      17.04      10.66      -0.68
C      19.42      10.39      -2.05
C      18.94       9.27      -1.36
C      17.75       9.42      -0.68
C      14.40       7.50       2.05
C      15.62       7.34       1.36
C      16.08       8.46       0.68
C      13.69       8.72       2.05
C      14.17       9.85       1.36
C      15.36       9.69       0.68
N      19.44      12.50      -2.80
N      20.54      10.59      -2.80
N      13.67       6.62       2.80
