30

C      -3.89       7.54       7.82
C      -3.92       7.85       6.49
C      -5.15       7.91       5.77
H      -8.57       8.17       3.87
H      -8.43       6.47      10.45
C      -6.37       7.65       6.46
H      -9.77       7.46       5.94
C      -5.20       8.24       4.41
H      -9.72       6.89       8.36
C      -6.29       6.60      10.56
H      -4.29       8.46       3.85
H      -2.99       8.06       5.95
H      -2.95       7.51       8.37
H      -4.15       6.80      10.44
O      -5.12       5.89      12.50
O      -7.39       5.82      12.49
O      -5.31       9.03       1.78
O      -7.58       9.10       1.80
C      -6.43       8.84       2.34
C      -7.51       6.70       9.89
C      -7.57       7.05       8.54
C      -7.62       7.72       5.77
C      -6.28       6.08      11.95
C      -8.83       7.43       6.49
C      -8.80       7.12       7.82
C      -7.63       8.08       4.41
C      -6.43       8.34       3.74
C      -5.09       6.89       9.89
C      -5.10       7.26       8.54
C      -6.35       7.32       7.85
