20

C       2.29      19.47      24.07
H       6.29      24.40      23.89
C       3.18      20.53      24.10
H       2.72      24.08      26.09
C      -0.01      18.49      24.40
H       0.95      23.06      24.71
H      -0.63      21.13      24.63
H       2.66      18.46      23.88
H       4.25      20.37      23.96
N       3.60      22.89      24.52
N       4.76      22.94      23.80
N       4.62      24.68      25.23
C       5.34      24.04      24.26
C       3.53      23.93      25.37
C       2.68      21.81      24.37
O       0.54      17.32      24.42
C       1.32      22.05      24.54
O      -1.26      18.65      24.46
C       0.43      20.97      24.50
C       0.92      19.67      24.31
