18

C       9.91       6.38       1.75
N      12.23       3.80       2.20
O       9.27       8.95       0.90
C       8.94       5.65       4.25
C       8.40       5.23       5.59
H      10.44       4.10       4.25
O       7.15       8.58       1.63
H      10.29       6.65       0.77
N      13.04       3.04       2.50
C       8.88       7.12       2.34
H       7.53       7.28       4.03
O       7.28       5.74       5.95
C      10.01       4.93       3.69
C      10.47       5.28       2.42
N      11.47       4.62       1.69
C       8.36       6.73       3.58
C       8.39       8.31       1.58
O       9.09       4.41       6.27
