30

H       7.61       2.52      22.54
H       8.04       2.84      20.26
H       4.33       2.95      19.70
H       5.72       1.88      19.85
H       5.31       1.69      22.15
H       3.95       2.81      22.01
H       6.26       6.12      20.29
H       4.64       5.47      20.00
C       4.91       3.24      26.49
H       5.95       5.91      22.60
H       8.23       4.58      20.52
H       7.92       4.24      22.80
H       4.32       5.29      22.32
O       4.09       4.07      27.01
O       5.31       2.15      27.03
O       6.84       5.65      15.51
O       8.00       3.69      15.51
C       7.56       3.73      20.70
C       5.27       2.79      20.25
C       5.01       2.68      21.77
C       5.37       3.51      25.16
C       6.22       3.98      19.96
C       7.32       3.53      22.21
C       5.82       3.75      22.54
C       7.20       4.54      16.04
C       5.38       5.15      22.05
C       5.59       5.28      20.53
C       5.59       3.62      23.97
C       6.47       4.12      18.54
C       6.71       4.25      17.36
