12

O       2.19       0.50      19.00
H       2.16      -2.12      18.14
C       1.26      -1.59      18.50
H      -0.38      -2.99      18.20
C       0.94      -3.74      19.74
C       0.21      -2.59      19.05
O      -0.67      -1.97      19.94
O       1.67      -0.81      20.77
O       1.45      -4.68      19.08
C       1.73      -0.58      19.54
O       1.02      -3.61      21.02
H       0.84      -1.04      17.64
