26

C       7.10      10.17      14.05
C       7.10      20.23      14.02
H       5.07      14.30      14.74
H       9.12      16.12      14.81
H       5.10      16.10      13.27
H       9.15      14.29      13.35
H       5.07      11.80      14.73
H       9.11      18.62      14.79
H       5.09      18.59      13.29
H       9.14      11.79      13.37
O       6.00       9.59      14.33
O       8.20      20.82      14.26
O       5.99      20.82      13.76
O       8.19       9.57      13.78
C       5.96      13.75      14.42
C       8.24      16.66      14.46
C       5.97      16.65      13.62
C       8.26      13.75      13.67
C       5.95      12.36      14.42
C       8.24      18.05      14.45
C       5.96      18.03      13.62
C       8.26      12.36      13.67
C       7.10      11.66      14.05
C       7.10      18.74      14.03
C       7.11      14.46      14.04
C       7.11      15.94      14.04
