14

H       6.60       0.90       5.33
C       5.31       2.67       5.55
C       4.33      -3.64       5.65
H       3.01      -1.88       5.76
O       6.34       3.41       5.60
O       3.34      -4.38       5.34
O       4.10       3.06       5.58
O       5.49      -4.02       5.98
F       3.32       0.48       5.63
F       6.25      -1.45       5.19
C       4.04      -2.18       5.63
C       5.57       1.21       5.43
C       4.94      -1.20       5.44
C       4.64       0.23       5.48
