26

C       1.59       3.29      13.25
C      -0.73       7.68      10.50
C      -0.23       3.11      10.43
C       1.09       7.85      13.31
C       1.47       5.62       9.24
C      -0.61       5.33      14.50
H       2.46       3.51      13.91
H      -1.59       7.47       9.83
H       0.61       2.43      10.20
H       0.24       8.53      13.52
H       1.98       6.56       8.94
H      -1.11       4.39      14.79
N       1.79       5.67      11.94
N      -0.92       5.29      11.80
O       1.01       2.22      13.21
O      -0.15       8.75      10.57
O      -1.38       2.91      10.07
O       2.22       8.06      13.69
O       1.24       4.71       8.46
O      -0.39       6.24      15.28
C       0.14       4.34      11.21
C       0.72       6.62      12.53
C       1.01       4.45      12.49
C      -0.15       6.51      11.25
C       0.94       5.55      10.65
C      -0.08       5.41      13.09
