45

N       7.44      11.00      14.43
H       7.28      12.37      16.61
N       9.50      16.26      17.60
N       9.97      17.29      19.51
H       7.98      14.12      18.20
H       9.98      16.19      14.96
N       5.89       6.03      11.13
H       9.18      14.49      13.39
N       5.22       5.42       9.12
H       9.00      15.38      19.54
H      10.87      19.04      18.66
H      10.31      17.77      16.26
H       6.61       8.93      15.51
H       5.92       6.53      15.68
H       5.59       5.18      13.61
H       6.63       8.62      11.21
H       4.94       7.45       9.79
H       5.90       3.38       9.21
H       6.74       4.15      11.76
H       6.46      13.32      11.07
H       7.03      14.38      12.40
H       8.20      13.63      11.27
C       7.65      12.25      14.01
C       7.01      10.34      13.32
C       8.13      13.32      14.88
C       7.86      13.22      16.26
C       8.28      14.19      17.15
C       9.04      15.28      16.69
C       9.35      15.37      15.33
C       8.90      14.41      14.44
C       9.44      16.20      18.98
C      10.40      18.09      18.47
C      10.12      17.46      17.28
C       6.46       8.32      14.61
C       6.09       6.99      14.70
C       5.90       6.23      13.55
C       6.09       6.82      12.30
C       6.46       8.17      12.19
C       6.64       8.92      13.36
C       5.29       6.44       9.97
C       5.80       4.33       9.73
C       6.21       4.69      10.99
C       7.26      13.49      11.81
N       7.32      12.33      12.69
N       6.92      11.12      12.23
