32

C       2.90      14.76       4.95
C       6.39      12.96      10.89
C       2.89      13.42       5.41
C       3.54      13.14       6.62
C       6.84      14.06      10.10
C       6.08      14.41       8.98
C       5.19      12.32      10.55
C       4.44      12.71       9.45
C       3.55      15.75       5.71
C       4.17      15.45       6.92
C       4.18      14.12       7.39
C       4.89      13.75       8.63
H       3.58      12.10       6.96
H       6.45      15.20       8.33
H       4.85      11.50      11.19
H       3.49      12.21       9.24
H       3.53      16.77       5.33
H       4.62      16.24       7.51
C       2.25      12.27       4.68
C       8.10      14.84      10.36
O       1.39      14.39       3.17
O       8.07      13.20      12.54
H       2.53      11.32       5.15
H       2.53      12.24       3.62
H       1.15      12.36       4.69
O       2.59      16.32       3.18
O       6.87      11.27      12.49
H       8.28      15.55       9.54
H       8.98      14.20      10.48
H       8.02      15.42      11.30
C       2.25      15.19       3.68
C       7.16      12.44      12.05
