32

H       1.17       4.64      12.25
H       1.35       4.48      14.76
H      -2.74       5.74      15.10
H       2.49       5.57      18.40
H      -1.59       4.24      18.65
H      -1.35       4.04      21.14
H      -3.34       5.93      11.51
H      -3.99       6.17      13.11
H       3.14       5.30      21.96
H       3.79       5.70      20.39
C       0.72       4.59      22.66
C      -0.86       5.43      10.79
C      -0.86       5.32      12.26
C       0.33       4.91      12.90
C       0.44       4.82      14.27
C      -0.69       5.15      15.05
C      -1.89       5.52      14.45
C      -2.01       5.62      13.05
C       1.65       5.26      19.02
C       0.44       4.96      18.40
C      -0.67       4.52      19.16
C      -0.52       4.41      20.53
C       0.68       4.74      21.19
C       1.81       5.17      20.42
N      -0.71       5.09      16.46
N       0.44       5.08      16.99
N      -3.19       6.04      12.51
N       2.99       5.52      20.98
O      -0.38       4.36      23.27
O      -2.00       5.42      10.19
O       0.27       5.55      10.20
O       1.86       4.69      23.24
