22

O       4.26       5.53       4.17
O       2.06       5.05       4.47
H       4.96       5.23       1.80
H      -0.81       5.80       0.54
H      -1.19       5.92      -1.92
H       3.04       5.71      -2.62
H       0.72       5.55       2.46
C       0.70       5.96      -3.88
C       2.85       5.38       2.27
C       0.92       5.83      -2.40
C       0.03       5.75      -0.15
C      -0.18       5.83      -1.51
C       2.21       5.71      -1.92
C       2.45       5.57      -0.53
C       1.34       5.61       0.38
C       1.57       5.51       1.77
C       3.96       5.33       1.39
C       3.76       5.40       0.03
C       3.08       5.31       3.75
Cl       5.13       5.29      -1.03
O       1.62       6.53      -4.54
O      -0.39       5.49      -4.34
