18

O       6.19      22.98       7.18
C       7.35      25.04       7.18
H       9.75      28.82       7.51
C       7.26      23.59       7.53
H       5.85      27.40       5.25
H      10.33      27.38       8.34
C       7.72      29.12       5.90
O       8.25      23.07       8.14
C       8.42      25.80       7.65
N       9.61      27.87       7.82
H       5.55      25.02       5.98
C       6.39      25.62       6.32
O       8.60      29.90       6.44
C       6.56      26.94       5.93
O       6.92      29.47       4.97
C       8.58      27.16       7.30
H       9.15      25.33       8.31
C       7.63      27.72       6.39
