24

C      -0.19       6.09      14.04
C       1.56       6.56      17.45
C      -0.48       7.38      13.55
C       1.85       5.27      17.94
C      -1.10       7.52      12.32
C       2.47       5.13      19.17
H      -1.44       4.40      11.34
C       0.47       5.85      15.31
C       0.90       6.80      16.17
H       2.80       8.25      20.15
H      -0.35       3.98      13.54
H       1.72       8.67      17.95
H      -0.22       8.27      14.11
H       1.59       4.37      17.37
H      -1.34       8.50      11.91
N      -1.44       6.47      11.55
H       2.71       4.15      19.58
N       2.81       6.18      19.94
H       0.61       4.80      15.56
H       0.76       7.85      15.92
C      -1.17       5.23      11.99
C       2.54       7.42      19.49
C      -0.56       5.01      13.22
C       1.93       7.64      18.26
