36

C       5.52       2.39      15.76
C       6.03       3.41      16.57
C       7.05       3.11      17.46
C       1.52      -0.14      10.43
C       1.70       0.85      11.39
C       2.99       1.05      11.90
C       4.04       0.27      11.41
C       3.77      -0.69      10.44
C       0.15       6.62      13.48
C       0.97       5.52      13.26
C       1.77       5.06      14.32
C       1.72       5.72      15.54
C       0.87       6.82      15.68
C       4.43       2.65      14.80
C       3.23       2.03      12.99
C       2.66       3.90      14.12
H       7.44      -0.13      17.03
H       5.64       0.28      15.30
N       7.53       1.86      17.61
N       2.53      -0.90       9.97
N       0.10       7.25      14.67
H       0.53      -0.36      10.02
H       5.05       0.40      11.80
H       4.56      -1.33      10.04
H       0.86       1.43      11.76
H       5.64       4.42      16.49
H       7.52       3.87      18.09
N       4.26       1.77      13.81
N       2.40       3.08      13.09
N       3.67       3.74      14.99
H      -0.49       7.02      12.69
H       1.01       5.04      12.29
H       2.33       5.39      16.38
H       0.80       7.39      16.61
C       7.02       0.87      16.85
C       6.03       1.10      15.91
