19

C       3.98       5.40      15.81
H       1.82       3.62      11.17
H       3.71       2.80      14.94
H       2.99       6.87      13.75
H       3.17       5.71      16.49
H       4.57       4.63      16.31
H       4.62       6.28      15.66
O       1.88       1.26      11.79
O       3.13       0.78      13.63
O       2.08       7.60      11.64
O       1.14       6.07      10.37
C       2.27       3.98      12.09
C       2.76       3.06      13.04
C       3.34       3.53      14.23
C       2.58       1.60      12.79
C       1.84       6.34      11.39
C       2.37       5.34      12.35
C       2.94       5.80      13.55
C       3.42       4.90      14.51
