34

O       4.96      16.32      17.37
O       8.38      11.19      24.75
H       5.47      13.14      23.49
H       7.87      14.37      18.63
H       9.44      10.29      21.08
H      10.16      11.07      22.50
H       8.81       9.96      22.70
H       3.90      17.22      21.04
H       4.53      17.55      19.42
H       3.18      16.44      19.62
H       3.26      15.64      22.12
H       3.58      13.98      22.61
H       4.47      15.31      23.38
H      10.08      11.87      20.00
H       8.87      12.20      18.74
H       9.76      13.53      19.50
C       6.10      16.07      17.89
C       7.24      11.44      24.22
C       7.22      12.11      22.89
C       6.12      15.40      19.23
C       5.12      14.82      21.36
C       8.22      12.69      20.76
C       5.11      15.63      20.22
C       8.23      11.88      21.89
C       7.13      14.47      19.42
C       6.21      13.03      22.70
C       7.19      13.67      20.57
C       6.15      13.84      21.54
C       9.21      10.74      22.05
C       4.13      16.77      20.07
C       4.05      14.95      22.42
C       9.29      12.56      19.70
O       7.22      16.30      17.34
O       6.12      11.21      24.77
