24

H       1.67      -1.04      16.75
H       6.28       1.04      16.75
H       6.27       1.04      21.40
H       1.67      -1.04      21.40
C       3.32      -0.29      15.52
C       4.62       0.29      15.52
C       4.62       0.29      22.63
C       3.32      -0.29      22.63
C       2.66      -0.60      16.72
C       5.28       0.59      16.72
C       5.28       0.59      21.43
C       2.66      -0.60      21.43
C       3.32      -0.30      17.89
C       4.62       0.29      17.89
C       4.62       0.29      20.26
C       3.32      -0.30      20.26
N       2.96      -0.45      14.21
N       4.98       0.44      14.21
N       4.98       0.44      23.94
N       2.96      -0.45      23.94
N       3.97      -0.00      13.47
N       3.97      -0.00      24.68
O       2.67      -0.59      19.07
O       5.27       0.58      19.07
