24

H      25.48       9.88      30.88
H      25.93      10.15      25.96
S      23.22       8.62      29.88
S      28.04      11.65      26.96
H      23.23       7.05      28.52
H      29.45      10.97      28.33
C      23.82       8.72      26.60
O      23.85       9.17      25.42
O      23.10       7.74      26.99
C      27.68      11.16      30.24
O      28.88      11.39      29.85
O      27.26      11.33      31.42
O      23.34       7.08      29.52
O      23.48       8.72      31.29
O      22.02       9.18      29.31
O      29.38      10.88      27.33
C      24.75       9.38      27.59
C      26.69      10.60      29.25
C      24.62       9.33      28.99
C      26.80      10.69      27.85
C      25.59       9.93      29.80
C      25.84      10.08      27.04
O      27.84      11.46      25.56
O      28.05      12.97      27.53
