38

H       9.39      15.39       8.06
H      10.76      19.92       8.20
H       9.47      17.88       8.20
H      13.67      15.19       8.09
H      17.46      19.78       9.25
H      15.23      16.13       8.94
H      17.35      17.29       9.40
H      12.18      23.01       7.17
H      10.99      21.72       7.26
H      13.60      21.55       5.66
H      12.32      20.33       5.66
H      10.72      22.05       4.66
H      12.11      21.71       3.61
H      12.07      23.20       4.57
C      11.40      13.70       7.86
C      10.39      17.29       8.20
C      15.71      21.49       8.56
C      11.54      15.17       8.03
C      16.52      19.26       9.05
C      16.46      17.86       9.13
C      15.27      17.21       8.86
C      14.10      17.93       8.55
C      14.14      19.37       8.50
C      12.85      17.20       8.33
C      11.64      17.95       8.28
C      11.69      19.36       8.27
C      12.88      20.05       8.30
C      12.77      15.81       8.15
C      10.34      15.92       8.11
C      15.40      20.02       8.71
C      12.06      21.93       7.09
C      12.51      21.41       5.73
C      11.81      22.14       4.58
O      12.87      21.41       8.17
O      10.26      13.22       8.21
O      16.46      21.98       9.48
O      12.35      13.00       7.37
O      15.32      22.11       7.52
