30

H       1.05      14.22      12.42
H      -2.77      15.53      10.93
H      -3.72      17.71      11.68
H      -3.61      19.70      13.15
H      -2.49      20.94      15.01
H       1.33      19.63      16.49
H       2.29      17.46      15.73
H       2.18      15.47      14.26
C      -0.89      13.62      10.64
C       0.24      14.95      12.44
C      -0.87      14.77      11.59
C      -1.92      15.70      11.59
C      -1.87      16.84      12.40
C      -0.75      17.01      13.29
C       0.30      16.04      13.32
C      -2.89      17.85      12.37
C      -2.82      18.94      13.18
C      -1.74      19.12      14.10
C      -0.69      18.15      14.13
C       0.42      18.32      15.02
C       1.45      17.32      15.05
C       1.39      16.22      14.23
C      -1.68      20.21      14.99
C      -0.58      20.38      15.84
C       0.48      19.46      15.83
C      -0.56      21.53      16.79
O       0.24      13.14      10.30
O      -2.03      13.24      10.22
O      -1.69      22.01      17.11
O       0.57      21.91      17.23
