27

C       4.14       1.23       8.47
H       2.69      -4.20       8.08
C       3.14       2.20       8.36
H       3.15      -1.74       8.16
H       6.25      -2.44      11.07
H       5.70      -4.90      11.05
H       1.23       1.37      11.05
H       3.02      -0.41      11.25
H       4.96       1.17       7.76
H       3.15       2.90       7.52
O       3.14      -6.63       8.59
O       4.35      -6.92      10.44
O       1.08       4.16       8.26
O       0.05       3.24      10.01
O       5.10      -0.63       9.64
C       3.88      -6.16       9.54
C       4.17      -4.70       9.56
C       3.45      -3.80       8.74
C       3.72      -2.44       8.78
C       4.74      -1.96       9.62
C       5.47      -2.84      10.43
C       5.17      -4.20      10.40
C       1.02       3.27       9.17
C       2.10       2.25       9.29
C       2.05       1.31      10.33
C       3.04       0.33      10.45
C       4.08       0.30       9.51
