48

C       9.92       1.98       7.23
C      11.02       1.80       4.98
H      16.02       5.49       8.12
C      12.56      -2.23       7.36
H      11.18       6.55       6.96
C      12.95      -3.56       7.59
H      16.14       1.53       7.89
C      11.97      -4.54       7.46
H      15.75      -0.22       7.86
C      10.62      -4.22       7.12
C      10.19      -2.91       6.93
H      15.00       0.85       9.07
H      14.02       1.16       4.83
C      11.18      -1.92       7.04
N      13.01       8.71       7.56
H      15.21      -0.03       5.43
N      14.20       9.21       7.91
H      15.58       1.73       5.49
N      15.12       8.24       8.07
H       9.19       1.22       6.94
N      14.50       3.42       7.53
H       9.56       2.98       6.99
N      11.82       4.02       6.93
H      10.06       1.92       8.32
N      13.49      -1.24       7.39
H      10.27       1.05       4.70
N      10.81      -0.62       6.81
H      11.94       1.60       4.42
N      12.04      -5.90       7.58
H      10.66       2.80       4.73
H      13.99      -3.80       7.83
N      10.83      -6.39       7.33
H       9.17      -2.64       6.69
N       9.94      -5.41       7.05
C      13.14       7.35       7.50
C      14.50       7.04       7.83
C      14.98       5.74       7.87
C      14.07       4.71       7.56
C      12.69       5.02       7.23
C      12.22       6.35       7.20
C      13.65       2.47       7.20
C      14.21       1.06       7.04
C      13.12      -0.00       7.13
C      11.74       0.31       6.84
C      11.26       1.72       6.52
C      12.27       2.78       6.91
C      15.35       0.79       8.03
C      14.79       0.98       5.60
