38

C       4.42      25.08       2.74
C       4.57      25.20       6.13
N       5.62      21.66       7.84
N       5.69      22.42       6.76
N       7.53      23.62       7.72
H       4.41      20.44      12.72
N       7.47      22.85       8.80
H       9.35      18.95      12.57
Cl       8.77      19.93       9.23
Cl       4.13      22.35      10.63
H       4.07      25.87       2.06
H       4.43      24.46       6.94
Cl       9.30      23.61       5.28
Cl       9.29      26.65       3.92
C       6.25      18.68      13.60
C       7.43      19.38      11.52
C       7.46      20.13      10.34
C       6.44      21.05      10.03
C       5.35      21.16      10.91
C       5.26      20.36      12.05
C       6.31      19.49      12.35
O       5.11      18.49      14.14
C       6.52      21.89       8.82
C       6.65      23.37       6.73
O       7.38      18.27      14.04
C       7.92      24.54       4.91
C       7.94      25.61       4.00
C       5.52      24.81       5.04
C       6.70      24.22       5.52
C       6.76      25.89       3.26
C       5.54      25.38       3.73
O       5.70      27.11       1.54
O       7.95      26.87       1.43
O       8.79      17.39      11.38
O       4.06      23.92       2.65
O       4.15      26.34       6.23
C       6.82      26.69       1.98
C       8.61      18.50      11.87
