26

C       6.45       5.78      24.67
C       6.42       5.69      23.29
C       6.43       7.84      18.82
C       6.42       7.94      20.20
C       6.43       6.78      21.00
C       6.43       6.84      22.48
H       6.44       4.61      20.90
H       6.48       9.01      22.59
H       6.44       4.88      25.28
H       6.40       4.70      22.83
H       6.43       8.74      18.20
H       6.41       8.93      20.65
C       6.44       6.65      16.64
C       6.48       6.98      26.85
Cl       6.46       3.83      18.31
Cl       6.54       9.79      25.18
O       6.35       5.55      16.00
O       6.54       7.80      16.11
O       6.36       8.07      27.48
O       6.61       5.82      27.38
C       6.43       6.61      18.14
C       6.47       7.01      25.34
C       6.44       5.45      18.95
C       6.43       5.54      20.34
C       6.48       8.17      24.54
C       6.47       8.08      23.15
