34

H      16.92      11.22       1.82
H      16.64      16.88      -2.38
H      18.11      17.64       0.39
H      19.19      16.29       0.03
H      18.56      17.30      -1.29
H      17.52      16.65       2.09
H      17.89      15.55       3.43
H      19.13      15.89       2.25
H      14.16      11.20       0.15
H      15.19      11.32      -1.28
H      15.72      10.37       0.13
H      13.34      13.02      -0.36
H      12.84      14.18      -1.59
H      13.59      12.69      -2.09
C      18.38      12.87       3.24
C      14.49      15.64      -3.21
C      17.52      14.56       1.56
C      16.80      12.23       1.44
C      15.92      12.48       0.41
C      15.88      13.81      -0.15
C      14.95      14.17      -1.19
C      16.38      16.08      -1.68
C      17.12      15.91      -0.53
C      16.84      14.78       0.31
C      17.55      13.26       2.07
C      15.27      15.27      -1.99
C      18.31      16.83      -0.33
C      18.05      15.73       2.36
C      15.20      11.29      -0.18
C      13.62      13.46      -1.31
O      19.28      13.67       3.66
O      13.67      14.79      -3.70
O      18.15      11.71       3.75
O      14.72      16.79      -3.71
