42

H       3.44      12.56      11.15
H       4.38      21.22       7.78
H       6.67      15.06       8.40
H       5.58      21.27      11.94
H       3.42      15.07      11.27
H       8.73      20.12      11.73
H       0.96      16.32       8.75
H       1.27      19.99       7.95
H       9.20      16.53      10.79
H       4.40      23.73       7.84
H       6.55      12.55       8.42
H       5.58      23.78      11.81
C       5.88      13.16       9.03
C       5.33      23.16      10.95
C       4.13      13.16      10.56
C       4.64      21.74       8.70
C       5.94      14.54       9.03
C       5.32      21.77      11.01
C       4.12      14.55      10.61
C       4.98      21.04       9.86
C       5.05      15.26       9.83
C       6.17      18.87      10.22
C       3.90      17.44       9.41
C       3.85      18.84       9.49
C       6.17      17.46      10.28
C       5.04      16.74       9.84
C       5.00      19.56       9.87
C       7.44      19.65      10.42
C       2.81      16.66       8.73
C       2.56      19.58       9.28
C       7.32      16.71      10.88
C       4.66      23.13       8.72
N       5.00      23.82       9.82
N       4.98      12.49       9.78
O       7.99      20.26       9.52
O       7.89      19.60      11.70
O       3.00      15.97       7.75
O       1.59      16.82       9.31
O       1.98      20.16      10.17
O       2.13      19.51       7.99
O       7.21      15.92      11.80
O       8.51      17.01      10.29
