28

C       0.14       4.97      11.76
C       9.81       4.98      11.76
H       0.28       3.42      10.28
H       9.67       6.53      10.28
C       0.84       4.09      10.92
C       9.11       5.86      10.92
C       2.23       4.09      10.92
H       7.17       6.54      10.27
H       2.78       3.40      10.27
C       7.72       5.86      10.92
C       2.95       4.97      11.76
C       7.00       4.98      11.76
H       2.79       6.53      13.25
H       7.16       3.42      13.25
O      -1.93       4.17      10.96
O      11.88       5.78      10.96
H       0.29       6.52      13.25
H       9.66       3.43      13.25
C       2.24       5.85      12.60
C       7.71       4.10      12.60
O      -1.93       5.78      12.57
O      11.88       4.17      12.57
C       0.85       5.85      12.60
C       9.10       4.10      12.60
C       4.36       4.97      11.76
C       5.58       4.98      11.76
C      -1.35       4.98      11.76
C      11.30       4.97      11.76
