38

H       6.34       6.36       7.07
H      14.89       5.36       5.33
H      14.99       2.49       8.54
H      12.96       1.30       9.22
N       5.13       5.52       8.58
H      10.48       1.22       9.27
H       8.37       2.35       8.74
H       8.17       5.28       5.58
H      10.25       5.82       4.26
N       5.07       4.31       9.21
H      12.71       5.86       4.19
H      17.06       6.23       6.26
N      18.51       5.32       7.50
N      18.54       4.17       8.25
H       6.17       2.51       9.07
H      17.17       2.62       8.65
C      17.36       3.56       8.12
C       6.13       5.49       7.69
C      16.51       4.29       7.27
C       6.78       4.24       7.75
C      14.38       4.66       5.99
C      15.11       3.99       6.98
C      14.44       3.04       7.78
C      13.06       2.83       7.68
C      12.31       3.61       6.75
C      12.99       4.50       5.86
C      12.37       1.92       8.55
C      11.01       1.88       8.57
C      10.22       2.75       7.74
C      10.89       3.57       6.79
C      10.12       4.44       5.95
C      10.83       5.21       4.96
C      12.20       5.24       4.92
C       8.85       2.91       7.93
C       8.11       3.87       7.22
C       8.74       4.57       6.18
C       6.05       3.53       8.71
C      17.30       5.39       6.90
