38

H      -5.46      13.05       5.58
H      -5.55      16.47       8.23
H       5.63      12.14       6.31
I      -3.55      18.01       6.66
H      -3.36      12.80       6.33
N      -6.95      13.96       6.77
H       1.63      17.95       6.89
H       3.66      16.48       7.08
N      -6.98      15.05       7.60
H       3.26      12.23       6.44
H       1.09      11.25       5.89
H      -1.38      11.45       5.86
H      -0.80      18.17       6.79
N       6.88      12.96       7.80
N       6.84      14.07       8.58
H       5.48      15.68       8.80
C       4.99      14.08       7.28
C      -5.70      13.84       6.28
C      -5.75      15.59       7.62
C       5.78      12.94       7.01
C      -4.88      14.86       6.79
C      -2.77      13.71       6.36
C      -3.42      14.94       6.58
C      -2.63      16.10       6.61
C      -1.21      16.05       6.56
C      -0.58      14.77       6.39
C      -1.38      13.60       6.23
C      -0.35      17.18       6.70
C       1.01      17.06       6.76
C       1.66      15.78       6.67
C       0.83      14.64       6.43
C       1.44      13.36       6.28
C       0.61      12.22       6.03
C      -0.75      12.33       6.02
C       3.04      15.61       6.86
C       3.63      14.33       6.83
C       2.82      13.23       6.48
C       5.72      14.76       8.27
