48

H       7.24       5.60       0.99
H       3.54       7.15      -1.07
H       3.85       8.23       0.82
H       7.83       6.93      -0.79
H       7.72       3.13       4.18
H       5.99       3.58       4.15
H       6.87       3.32       2.62
H       8.31       5.33       3.14
H       7.44       5.56       4.66
H       1.79       6.08      -4.65
H       3.44       5.42      -4.74
H       2.55       5.38      -3.20
H       2.57       7.91      -3.15
H       3.49       7.93      -4.66
H       2.88       8.85       2.67
H       1.64       7.02       3.67
H       1.81       8.39       4.81
H       2.86       6.98       4.96
H       8.99       6.69      -2.74
H       8.93       9.09      -3.25
H       8.07       8.65      -4.75
H       9.73       8.10      -4.51
C       5.19       6.70       5.03
C       5.93       7.22      -5.06
C       5.56       6.93       0.72
C       5.67       7.00      -0.75
C       6.45       6.16       1.49
C       4.52       7.15      -1.54
C       6.32       6.06       2.88
C       4.59       7.26      -2.94
C       5.28       6.75       3.54
C       5.85       7.20      -3.56
C       4.37       7.54       2.78
C       7.03       7.08      -2.78
C       4.54       7.61       1.39
C       6.91       6.97      -1.39
C       7.33       5.21       3.63
C       6.95       3.72       3.64
C       3.32       7.35      -3.74
C       2.74       5.97      -4.11
C       2.36       7.63       4.23
C       8.78       8.29      -4.00
N       3.34       8.29       3.37
N       8.30       7.04      -3.40
O       5.07       5.55       5.58
O       5.99       6.09      -5.64
O       5.26       7.81       5.66
O       5.90       8.36      -5.63
