35

C      -2.39       3.47       1.71
B      -5.02       1.05       0.64
H      -3.49       1.95       2.93
C      -4.02       3.04      -1.52
C      -2.65      -0.95       0.82
H      -6.11       3.50       1.80
C      -8.21       2.80       1.42
C      -4.92      -1.14       3.65
C      -5.56      -0.19       2.90
C      -7.58       0.95       0.43
H      -1.67       4.00       2.33
C      -7.59      -0.37      -0.25
N      -3.97       2.18       0.84
H      -5.20      -1.58       4.60
H      -3.45       3.75      -2.12
N      -3.77      -1.53       2.99
N      -2.53       3.79       0.37
H      -3.97       2.05      -1.99
N      -4.79      -0.01       1.75
H      -5.08       3.34      -1.53
H      -2.83      -0.27      -0.02
N      -6.45       1.62       0.79
H      -2.59      -1.98       0.44
N      -8.66       1.65       0.81
H      -1.67      -0.71       1.26
H      -8.89       3.55       1.81
H      -6.47       0.37       3.06
H      -8.61      -0.66      -0.48
H      -7.00      -0.34      -1.18
H      -7.13      -1.14       0.39
H      -4.88       0.55      -0.45
C      -3.28       2.48       2.01
C      -3.49       3.00      -0.13
C      -6.84       2.78       1.42
C      -3.72      -0.84       1.84
