16

C      13.00       6.20      13.45
C      12.99       9.99      10.94
C      12.96       8.55      12.73
C      13.04       7.64      11.66
C      12.99      11.23      10.13
O      12.91      12.33      10.77
O      13.07      11.08       8.86
O      13.05       3.86      13.63
O      12.94       5.13      15.53
S      12.91       7.74      14.25
S      13.09       8.45      10.14
H      13.12       5.41      11.43
H      12.87      10.78      12.96
C      13.00       4.97      14.26
C      13.07       6.29      12.07
C      12.93       9.90      12.32
