25

H      -0.01       5.02      12.37
H      -1.64       4.24      16.20
C      -0.71       4.77      13.16
H      -3.56       3.69      14.31
C      -1.58       4.33      15.12
H      -4.50       3.47      12.43
C      -2.55       4.05      14.19
H      -5.51       3.41      10.15
C      -2.62       4.26      11.68
H      -4.17       4.21       8.20
C      -3.93       3.80      11.57
C      -4.49       3.77      10.29
H      -2.95       4.78       6.66
C      -3.75       4.20       9.20
H       0.09       5.85       9.45
C      -2.45       4.65       9.45
H       0.83       6.66       6.89
C      -2.01       5.16       7.06
N      -0.44       4.77      14.46
C      -0.41       5.75       8.49
N      -1.99       4.34      12.95
C      -0.05       6.13       7.23
N      -1.88       4.69      10.65
N      -1.65       5.14       8.38
N      -1.06       5.75       6.35
