28

O       2.29      24.06      16.08
O       1.48      25.63      17.53
O      -3.33      27.57      15.42
O      -1.97      29.26      14.86
H      -3.32      26.59      15.42
H       1.32      23.17      13.08
O      -0.65      27.83      17.60
H       2.14      26.74      11.48
O       1.72      26.09      10.89
C      -1.58      27.40      12.11
O      -0.02      24.67      10.94
O       2.26      23.44      13.08
O       3.47      25.25      13.63
H      -0.14      28.43      17.01
O      -1.48      25.75      17.56
C       1.58      25.07      16.39
C      -0.76      26.79      13.21
C       0.76      25.67      15.28
C      -1.10      27.06      14.55
C       1.11      25.43      13.94
C      -0.35      26.47      15.59
C       0.33      25.97      12.91
C      -2.17      28.06      14.92
C       2.39      24.70      13.58
C      -0.84      26.63      17.01
C       0.63      25.54      11.48
O      -1.02      27.47      10.97
O      -2.75      27.78      12.41
