26

O       5.86       6.35       7.37
O       4.09       5.48       6.26
O       8.70      -4.66       7.83
O      10.57      -3.97       6.75
H       7.82       4.89       7.43
H       8.94       2.66       7.55
H       5.26       0.75       6.38
H       4.18       3.00       6.16
H       9.59       0.74       6.05
C       5.93       4.07       6.81
H      10.54      -1.58       6.16
H       7.11      -2.91       8.35
C       7.28       3.97       7.18
C       7.90       2.73       7.25
H       6.13      -0.62       8.23
C       7.17       1.55       7.00
C       5.82       1.66       6.61
C       5.22       2.91       6.49
C       7.79       0.22       7.12
C       9.05      -0.06       6.57
C       9.59      -1.34       6.63
C       8.89      -2.37       7.26
C       7.64      -2.10       7.85
C       7.10      -0.82       7.77
C       5.25       5.40       6.81
C       9.43      -3.77       7.29
