16

C       7.62       0.85       6.66
O       7.47       1.05       3.03
C       9.00       3.25       6.25
H       8.76       2.85       4.14
C       8.56       2.51       5.16
O       8.76       3.28       9.88
C       7.33       0.53       4.21
C       8.04       1.60       7.76
H       7.84       1.27       8.77
H       7.09      -0.08       6.81
C       9.14       3.66       8.71
O       6.77      -0.59       4.40
H       9.55       4.18       6.11
O       9.83       4.70       8.51
C       7.86       1.31       5.36
C       8.72       2.81       7.55
