20

H      14.67      17.08       9.22
H      12.57      19.86       5.77
H      14.96      19.90       8.98
H      12.28      17.04       6.01
H      12.15      20.10       8.58
H      15.09      16.85       6.40
O      15.49      19.57       4.68
O      11.76      17.37      10.30
O      16.53      20.43       6.53
O      10.72      16.52       8.46
C      15.61      19.77       5.94
C      11.64      17.18       9.04
C      14.36      19.27       8.32
C      12.88      17.68       6.66
C      14.22      17.71       8.44
C      13.02      19.23       6.54
C      12.67      17.82       8.20
C      14.57      19.13       6.78
C      12.82      19.39       8.09
C      14.42      17.56       6.90
