24

H       0.19       3.68       7.81
H       3.34      -3.63      13.36
H       1.28       2.55       9.71
H       2.25      -2.50      11.46
H      -0.06      -1.21       8.02
H       3.58       1.26      13.14
H      -1.16       0.10       6.23
H       4.68      -0.05      14.93
H       1.30      -1.31       9.97
H       2.23       1.36      11.19
C       0.17       2.60       7.89
C       3.36      -2.55      13.27
C       0.78       1.95       8.95
C       2.75      -1.90      12.22
C       0.76       0.54       9.03
C       2.77      -0.49      12.14
C       0.03      -0.12       8.01
C       3.50       0.17      13.15
C      -0.57       0.59       7.00
C       4.10      -0.55      14.17
C       1.40      -0.23      10.07
C       2.13       0.28      11.10
N      -0.48       1.94       6.89
N       4.01      -1.90      14.27
