16

C      30.46      17.45      27.59
C      29.42      20.47      29.29
C      31.64      18.08      27.19
C      28.24      19.84      29.67
C      30.22      19.61      28.53
Cl      29.97      15.86      27.24
C      29.65      18.33      28.35
O      33.67      18.39      26.09
O      32.70      16.32      26.05
O      26.14      19.63      30.66
O      27.32      21.59      30.93
S      31.75      19.73      27.74
C      32.74      17.55      26.39
S      28.11      18.20      29.11
C      27.16      20.40      30.48
H      29.64      21.50      29.56
