36

C      -1.80       6.98       7.30
C      -5.14       5.04       0.91
H      -5.99       7.85       4.98
C      -0.85       6.40       8.19
H      -3.80       9.11       3.23
C      -5.11       3.94       0.02
H      -5.30       9.46       5.27
C      -3.12       4.89       7.51
H      -5.54       9.32       2.95
C      -2.68       5.14       0.71
H       0.02       6.99       8.45
C      -1.03       5.11       8.68
H      -6.06       3.47      -0.24
C      -3.91       3.45      -0.47
H      -4.01       4.33       7.22
C      -2.16       4.34       8.34
H      -1.75       5.64       0.99
C      -2.68       4.04      -0.13
H      -0.29       4.70       9.37
C      -4.01       6.70       6.16
H      -3.92       2.60      -1.15
C      -3.79       6.82       2.05
H      -2.29       3.33       8.73
N      -4.00       7.89       5.61
H      -1.74       3.65      -0.52
N      -4.83       7.41       2.60
H      -4.89       6.07       5.97
H      -2.81       7.27       2.24
H      -3.16       8.46       5.81
O      -1.62       8.17       6.80
H      -5.74       6.97       2.40
O      -6.27       5.49       1.41
C      -5.10       8.46       4.85
C      -4.78       8.65       3.36
C      -2.97       6.20       6.98
C      -3.88       5.67       1.23
