16

C      18.60       9.76       3.92
C      18.46      13.37       4.19
C      18.54       9.63       5.30
C      18.53      13.46       2.82
C      18.49      12.01       4.60
C      18.57      11.12       3.51
S      18.44      11.18       6.11
S      18.63      11.93       2.00
C      18.55       8.43       6.13
O      18.65      14.55       0.75
O      18.42      15.80       2.65
O      18.64       7.31       5.53
O      18.46       8.62       7.40
Br      18.69       8.38       2.65
C      18.54      14.70       2.02
H      18.40      14.24       4.84
