12

C      15.44      10.82       2.30
C      14.49       8.73      11.20
O      15.55       8.53      11.90
C      15.23      10.32       3.63
O      16.63      11.08       1.97
C      15.13      10.08       4.83
C      15.02       9.86       6.14
O      14.38      11.00       1.58
C      14.92       9.69       7.36
C      14.80       9.46       8.67
C      14.68       9.23       9.87
O      13.30       8.48      11.55
