32

O       5.01       5.62      11.06
O       5.28       7.87      11.02
H       6.17       5.03       6.20
H       5.61       9.25       4.70
H       5.33       5.25       1.83
H       5.10       5.00       4.28
H       4.34       8.72       8.93
H       4.35       8.92       6.46
O       6.13       8.47      -0.19
O       5.57       6.28      -0.23
H       6.64       3.76       8.01
H       6.95       4.58       9.57
H       5.38       3.83       9.28
H       6.82      10.06       1.68
H       5.10      10.15       1.38
H       5.74      10.65       2.97
C       5.15       6.73      10.45
C       5.78       7.38       0.38
C       5.19       6.74       8.96
C       5.62       7.37       1.87
C       5.68       5.67       8.19
C       5.73       5.83       6.80
C       5.67       8.53       2.68
C       5.54       8.36       4.07
C       5.42       6.12       2.48
C       5.29       5.98       3.85
C       4.73       7.91       8.32
C       4.75       8.03       6.93
C       5.27       6.99       6.15
C       5.37       7.11       4.68
C       6.19       4.39       8.79
C       5.84       9.93       2.15
