16

C       1.92       3.36       3.69
H       4.81       1.57       3.36
H       5.45       3.64       2.08
H       1.56       5.31       2.86
H       0.95       3.27       4.17
C       4.10       2.39       3.24
C       3.92       5.80       1.58
C       3.54       4.59       2.38
C       2.37       1.14       4.70
C       4.46       3.53       2.52
O       3.17       6.84       1.71
O       3.15       0.08       4.70
C       2.28       4.49       2.97
C       2.83       2.29       3.83
O       4.93       5.69       0.84
O       1.33       1.29       5.34
