22

C       1.94      16.50       5.67
O       2.54      13.40       8.41
O       4.78      13.45       8.03
C       3.04      16.99       4.92
C       2.88      17.95       3.89
H       6.11      18.28       2.85
H       6.45      16.57       4.65
C       3.59      13.86       7.85
H       5.48      15.03       6.37
H       1.27      15.14       7.20
H       0.95      16.92       5.48
H       1.90      18.36       3.67
O       2.57      19.69       1.74
C       3.76      19.32       2.00
C       3.97      18.38       3.14
O       4.80      19.65       1.33
C       5.27      17.89       3.44
C       5.45      16.96       4.43
C       4.35      16.47       5.18
C       4.50      15.46       6.16
C       3.40      14.98       6.86
C       2.11      15.52       6.62
