16

O      -1.52       1.57       3.96
C      -1.40       1.09       0.33
C       1.20      -1.30      -0.24
C      -1.22       1.03       1.70
C       1.03      -1.22      -1.62
C       0.32      -0.46       0.48
C      -0.53       0.25      -0.39
S       0.04      -0.09       2.14
S      -0.24      -0.10      -2.05
O       1.45      -1.63      -3.89
C      -1.88       1.81       2.76
F      -2.31       1.87      -0.29
F       2.10      -2.08       0.37
C       1.77      -1.91      -2.68
O      -2.75       2.67       2.38
O       2.69      -2.72      -2.31
