16

C      14.33       0.12      23.15
C      12.03       0.87      22.90
H      14.73      -1.11      24.88
O      12.85       2.33      20.62
C      13.97      -0.55      24.32
C      10.25       0.21      24.54
H      12.38      -1.00      25.72
O      14.97       1.66      20.87
C      13.72       1.64      21.24
C      12.66      -0.50      24.79
H      11.28       1.43      22.35
O       9.39       0.75      23.77
C      11.68       0.20      24.07
H      15.35       0.10      22.78
O      10.00      -0.33      25.66
C      13.36       0.85      22.45
