64

H       1.08      12.64      13.51
H       1.05      12.31      11.76
H      -0.42      12.85      12.59
H      -0.49      10.37      12.12
H      -0.58      10.73      13.85
H       1.85      10.20      14.09
H       1.95       9.86      12.34
H       1.89      10.70      18.33
H       0.28      11.25      18.84
H       1.71      11.75      19.75
H       0.51       9.93      20.98
H       2.10       9.38      20.49
H       1.07       8.37      18.39
H      -0.51       8.86      18.95
H      -1.73       2.34      15.77
H      -2.57       2.28      14.21
H      -1.10       1.31      14.46
H      -0.51       3.34      13.11
H       0.25       3.45      14.71
H      -1.73       4.85      15.49
H       0.80       0.92      22.99
H      -2.35       4.82      13.83
H       0.49       0.38      21.32
H       2.16       0.56      21.91
H       1.62       2.52      20.48
H       1.79       3.06      22.15
H      -0.69       3.01      22.42
H      -0.87       2.50      20.73
C       1.06       7.61      11.06
C      -0.31       5.52      23.34
C      -0.19       4.80      19.63
C       0.48       8.08      14.77
C      -0.17       4.51      20.99
C       0.78       8.45      13.47
C       0.00       5.61      21.86
C       0.48       7.51      12.45
C       0.32       6.87      21.31
C      -0.28       6.38      12.81
C       0.29       7.17      19.95
C      -0.15       6.29      17.70
C      -0.61       6.02      14.11
C      -0.03       6.08      19.09
C      -0.13       6.87      15.14
C      -0.24       3.07      21.43
C       1.17       2.45      21.48
C       1.15       1.00      21.95
C       1.29       9.84      13.22
C       0.08      10.77      12.97
C       0.47      12.22      12.69
C       0.48       8.53      19.32
C      -0.22       6.54      16.50
C       1.12       9.68      20.10
C       1.26      10.91      19.21
C      -1.43       4.80      14.43
C      -0.72       3.45      14.19
C      -1.58       2.28      14.68
O       1.33       6.50      10.52
O      -0.94       6.52      23.81
O       1.30       8.76      10.56
O      -0.01       4.46      23.97
F      -0.39       3.77      18.75
F       0.82       8.94      15.78
F       0.69       7.86      22.17
F      -0.77       5.56      11.82
