24

H       7.19       6.02      22.01
H       8.89       4.81      20.09
H       4.90       2.74      22.06
H       6.60       1.52      20.13
H       8.86       2.41      21.59
C       7.77       3.26      26.42
Br       4.31       5.58      20.35
O       5.78       5.75      15.47
O       4.71       3.74      15.41
O       8.58       4.11      26.94
O       7.35       2.19      26.99
C       5.52       4.58      15.93
C       8.01       4.34      20.53
C       7.07       5.02      21.59
C       7.38       3.48      25.05
C       6.14       4.22      17.17
C       7.98       3.02      21.35
C       7.04       3.69      22.44
C       6.73       2.52      20.56
C       6.76       3.84      19.69
C       5.79       3.19      21.61
C       5.83       4.51      20.80
C       7.21       3.58      23.85
C       6.50       4.00      18.32
