12

C       8.76      18.42      11.99
C       9.03      21.22       9.27
C       8.85      19.38      11.06
C       8.94      20.27      10.20
O      10.29      23.42       6.92
O       7.50      16.21      14.32
C       9.14      23.06       7.34
C       8.65      16.58      13.91
C       8.68      17.55      12.85
O       9.79      16.20      14.35
O       8.00      23.44       6.91
C       9.11      22.09       8.41
