27

C       0.04      13.56       2.20
O       1.28      13.53       1.91
C      -0.37      14.28       3.45
O      -0.89      13.03       1.52
C       0.55      15.04       4.19
O      -2.90      19.46      10.70
C      -1.71      14.19       3.87
O      -0.70      19.95      10.39
C       0.08      15.69       5.32
H       1.59      15.10       3.87
H      -2.39      13.57       3.29
C      -2.16      14.85       5.01
C      -1.26      15.63       5.74
O       1.51      17.92       5.71
H      -3.20      14.75       5.33
C      -1.54      16.45       6.93
O       1.99      15.98       7.19
H      -3.66      16.15       7.25
C      -0.40      17.13       7.39
H       0.45      18.57       8.78
C      -2.76      16.66       7.58
H      -3.76      17.74       9.15
C      -0.44      18.03       8.45
C      -2.82      17.56       8.64
C      -1.67      18.26       9.07
C      -1.77      19.30      10.14
S       1.03      16.74       6.41
