26

C      14.90      15.08      23.82
O       4.91      18.92      22.50
O       5.80      19.78      20.65
O      15.00      14.05      24.56
O      15.97      15.66      23.40
H       6.60      17.64      23.90
H       8.81      16.63      24.39
H      10.21      17.79      20.47
H       8.00      18.86      20.03
H      10.26      15.01      24.06
H      12.53      14.13      24.63
H      14.33      17.17      22.18
H      12.09      18.06      21.61
C       5.91      19.03      21.65
C       7.18      18.33      21.94
C       7.40      17.67      23.16
C       8.64      17.10      23.42
C       9.68      17.15      22.47
C       9.43      17.77      21.24
C       8.20      18.36      20.98
C      11.01      16.59      22.78
C      11.15      15.49      23.64
C      12.41      14.99      23.96
C      13.56      15.60      23.44
C      13.44      16.70      22.58
C      12.17      17.18      22.25
