30

H      16.39       5.34       5.34
H      25.70       5.34       5.34
H      20.10       5.98       3.27
H      20.10       4.71       7.41
H      21.99       5.98       7.41
H      21.99       4.71       3.28
C      17.48       5.34       5.34
C      24.61       5.34       5.34
C      17.47       5.86       2.88
C      17.47       4.83       7.81
C      24.61       5.86       7.81
C      24.61       4.83       2.88
C      18.19       5.63       4.17
C      18.19       5.05       6.51
C      23.90       5.63       6.51
C      23.90       5.05       4.17
C      20.31       5.34       5.34
C      21.78       5.34       5.34
C      19.59       5.68       4.19
C      19.59       5.01       6.50
C      22.50       5.68       6.50
C      22.50       5.01       4.19
O      18.09       6.55       2.00
O      18.09       4.14       8.68
O      24.00       6.55       8.68
O      24.00       4.14       2.00
O      16.33       5.31       2.77
O      16.33       5.38       7.92
O      25.76       5.31       7.92
O      25.76       5.38       2.77
