21

H       3.51      12.73      10.30
H       1.55      10.24      14.63
H      -0.00      10.57      13.81
H      -0.14      12.79      14.98
H       1.41      12.45      15.80
H       3.59      15.77      12.04
C       2.13      15.43      13.84
C       2.35      10.35      10.99
C       2.34      11.63      11.76
C       2.23      14.14      13.16
C       1.70      11.75      13.00
C       2.94      13.99      11.94
C       1.63      12.97      13.65
C       2.96      12.77      11.24
C       0.96      11.00      14.10
C       0.87      12.40      14.84
O       1.15      15.62      14.64
O       3.04      16.32      13.58
O       1.39      10.16      10.18
O       3.31       9.54      11.21
O       3.61      15.03      11.37
