28

N       1.99      35.46      20.49
N       1.99      34.38      19.83
Cl       2.04      37.93      24.90
Cl       2.04      31.92      15.42
O       2.97      34.20      13.52
H       1.87      33.07      24.47
H       1.91      33.14      21.96
O       2.97      35.65      26.80
H       2.03      37.43      22.11
H       2.03      32.41      18.22
O       1.10      34.39      26.73
H       1.91      36.71      18.37
H       1.87      36.78      15.86
C       2.02      34.76      14.14
O       1.10      35.46      13.60
C       2.02      35.08      26.18
C       1.99      35.20      24.70
C       1.92      34.02      23.94
C       1.94      34.05      22.55
C       1.99      35.29      21.90
C       2.02      36.48      22.64
C       2.04      36.43      24.03
C       2.02      33.37      17.69
C       1.99      34.56      18.43
C       1.94      35.80      17.77
C       1.92      35.83      16.39
C       1.99      34.65      15.63
C       2.04      33.41      16.30
