53

H      -8.04       7.44       9.65
H      -8.07       5.39       5.89
H      -8.43       7.12       5.84
H      -5.87       6.04       5.48
H      -8.14       4.12       8.09
H      -6.16       7.69       6.00
C     -13.12       5.92       9.34
C      -0.90       4.59       7.98
H      -0.94       3.89       7.15
H     -12.76       4.42       6.44
C      -5.02       9.29       7.29
C      -4.17      10.49       7.66
H     -12.91       6.46      10.25
H      -4.36       4.33       8.99
H      -5.70       3.49       9.50
H      -7.70       9.52       8.38
H      -8.23       8.74       7.04
H      -6.20       7.51      10.72
H      -5.57       6.06      10.13
H      -5.82       9.59       6.59
H      -4.39       8.53       6.79
H      -3.34      10.20       8.32
H      -3.76      10.95       6.76
N     -14.29       4.83       7.85
H      -4.77      11.25       8.19
N      -8.27       8.74       8.06
N      -5.63       7.07      10.00
N      -5.35       4.41       9.23
N      -5.99       4.03       6.87
H      -6.33       3.09       7.10
H      -5.00       3.94       6.61
N       0.09       4.51       8.89
N      -0.05       5.52       9.80
O      -5.57       8.76       8.50
H      -1.43       7.11      10.02
H      -7.69       5.03       9.54
C      -1.12       6.24       9.45
C      -1.72       5.68       8.30
C      -7.59       5.00       8.45
C      -7.70       7.51       8.60
C      -6.10       7.43       8.68
C      -2.99       6.03       7.78
C      -8.25       6.27       7.85
N     -14.36       5.48       9.05
C      -6.11       4.89       8.06
C      -5.62       6.35       7.62
C      -6.33       6.65       6.27
C      -7.83       6.35       6.36
C      -4.16       6.29       7.56
C      -9.68       6.14       8.01
C     -10.86       5.87       8.17
C     -13.04       4.87       7.39
C     -12.23       5.57       8.30
