22

O       2.84       0.50       9.03
O      -1.70      -2.18      13.51
O       2.33       2.60       9.75
O      -3.20      -0.71      12.65
H      -2.09       1.09      11.64
C       1.37      -0.58      11.22
C       2.21       1.33       9.78
C      -2.05      -1.27      12.69
C       0.46      -2.82      11.57
C       1.74      -3.35      11.69
C       0.24      -1.41      11.52
C       2.85      -2.45      11.82
C      -1.00      -0.73      11.76
C      -1.15       0.59      11.40
C      -0.11       1.31      10.77
C       1.16       0.74      10.67
C       2.66      -1.10      11.55
I       2.07      -5.42      11.72
I      -0.66       3.21      10.05
Br      -0.99      -3.98      11.23
Br       4.54      -3.09      12.35
Br       4.04       0.13      11.90
