24

C      10.97      14.75      11.36
C      10.51      15.27      10.15
C       9.97      14.38       9.22
C       9.91      13.02       9.52
C      10.40      12.58      10.75
C      10.39      11.15      11.16
C      10.01      10.11      10.31
C      10.12       8.80      10.76
C      10.57       8.55      12.06
C      10.88       9.65      12.87
C      10.58      16.75       9.88
C      10.82       7.13      12.52
N      10.91      13.45      11.65
N      10.81      10.90      12.42
H      11.40      15.40      12.13
H       9.59      14.77       8.27
H       9.49      12.32       8.80
H       9.66      10.30       9.30
H       9.87       7.96      10.11
H      11.23       9.52      13.89
O      11.13      17.46      10.77
O      10.08      17.13       8.77
O      10.96       6.30      11.58
O      10.89       6.91      13.77
