21

H      11.09      13.00       3.70
H      12.71      12.01       5.33
H      14.36      14.70       1.49
H      16.70      13.79       1.00
C      11.66      14.38       1.47
C      12.64      13.85       2.47
C      12.16      13.14       3.58
C      13.06      12.59       4.49
C      14.44      12.76       4.31
C      15.38      11.96       5.17
C      14.90      13.56       3.25
C      14.01      14.09       2.32
C      17.06      13.92       2.01
N      16.29      13.84       3.12
N      18.31      14.16       2.38
N      18.29      14.23       3.75
N      17.09      14.04       4.21
O      10.47      14.54       1.88
O      12.09      14.62       0.29
O      16.23      11.28       4.52
O      15.18      11.97       6.42
