48

F       3.64      24.42      17.96
F       1.00      20.97      16.05
H       2.25      23.05      12.08
F       0.86      22.32      13.75
H       2.11      26.77      14.22
F       3.62      22.28      10.37
F       3.65      25.73      15.64
H       2.50      26.77       9.94
F       3.38      20.93       8.08
F       0.77      24.44       6.24
C       2.33      21.92      18.38
F       0.87      25.76       8.56
F       3.71      28.53      14.02
C       2.03      21.93       5.78
F       3.68      31.16      14.05
F       0.95      31.16      10.10
F       0.92      28.54      10.13
C       2.31      32.79      12.08
C       2.32      24.82      10.86
C       2.27      24.13      12.08
C       2.23      24.83      13.30
C       2.21      26.23      13.28
C       2.31      26.93      12.08
C       2.38      26.22      10.87
C       1.64      22.16      15.96
C       1.59      22.86      14.76
C       2.24      24.09      14.58
C       2.94      24.57      15.71
C       2.96      23.89      16.92
C       2.31      22.66      17.07
C       2.88      22.84       9.39
C       2.78      22.14       8.19
C       2.08      22.66       7.10
C       1.47      23.90       7.26
C       1.55      24.59       8.47
C       2.26      24.09       9.57
C       1.64      29.16      11.10
C       1.63      30.55      11.10
C       2.31      31.30      12.08
C       3.00      30.55      13.05
C       2.99      29.16      13.05
C       2.32      28.41      12.07
O       1.34      33.37      11.49
O       3.27      33.37      12.68
O       1.38      22.15      19.18
O       3.31      21.14      18.57
O       1.05      21.15       5.59
O       2.97      22.16       4.97
