32

C       4.64       4.94       3.70
H       9.78       5.46      -3.58
H       8.64       5.52      -1.34
H       4.89       5.04      -3.44
H       6.18       5.04      -5.57
N       8.02       5.25      -4.65
H       4.10       5.09       0.14
H       4.17       4.12      -1.36
N       6.73       5.20       0.17
H       4.02       5.88      -1.46
N       6.05       5.12       1.36
H       8.69       5.11       1.44
N       4.57       4.98       6.09
H       8.66       4.20       2.99
H       8.66       5.95       3.03
H       7.77       5.10       5.05
H       6.38       5.08       7.10
H       2.87       4.79       4.93
H       4.11       4.90       2.75
C       8.70       5.40      -3.49
C       8.06       5.42      -2.26
C       6.67       5.26      -2.19
C       5.98       5.16      -3.41
C       6.69       5.16      -4.61
C       5.97       5.18      -0.89
C       4.47       5.06      -0.88
C       8.29       5.09       2.46
C       6.80       5.08       2.43
C       6.05       5.04       3.70
C       6.69       5.08       4.95
C       5.91       5.06       6.11
C       3.96       4.90       4.90
