24

H       5.51       9.89      11.79
H       7.17      11.28      13.09
H      10.19       8.37      12.04
H       8.43       7.16      10.74
H       9.31      11.63      13.92
H      15.20      11.11      15.57
H      13.55       9.72      14.27
H      10.53      12.63      15.32
H      12.28      13.85      16.62
H      11.40       9.38      13.43
C       6.56       9.62      11.86
C       7.48      10.37      12.58
C       8.81       9.93      12.70
C       9.17       8.75      12.01
C       8.20       8.07      11.29
C       9.73      10.70      13.53
C      14.15      11.39      15.50
C      13.24      10.64      14.77
C      11.91      11.07      14.66
C      11.55      12.25      15.35
C      12.52      12.93      16.07
C      10.99      10.31      13.83
N       6.91       8.48      11.22
N      13.80      12.52      16.14
