16

S      11.21       7.34      12.93
S      14.80       8.95      11.49
C      10.18       9.53      14.28
O      16.76       7.55       9.87
C      12.44       9.62      13.05
C      13.55       6.65      11.36
C      15.79       6.75      10.13
C      14.70       7.30      10.95
C      12.73       7.50      12.13
C      13.28       8.79      12.29
C      11.28       8.99      13.48
F      12.76      10.90      13.33
O      15.68       5.54       9.76
H      13.35       5.61      11.10
O      10.27      10.75      14.63
O       9.23       8.71      14.54
