16

C       0.00       2.04      17.09
H      -0.00       1.74      19.23
C       0.00       2.98      16.04
O      -0.00       3.44      21.07
C       0.00       4.35      16.35
H      -0.00       0.98      16.84
O      -0.00       5.57      20.39
H      -0.00       5.06      15.52
C      -0.00       4.77      17.67
O       0.00       1.27      14.39
C       0.00       2.53      14.61
O       0.00       3.39      13.68
H      -0.00       5.84      17.89
C      -0.00       4.30      20.14
C      -0.00       3.84      18.71
C      -0.00       2.46      18.42
