73

H       1.71      13.09      24.29
H      -3.71      18.67      19.06
H       4.75      18.65      17.31
H      -2.56      10.99      25.69
H       1.70      21.66      26.09
H      -5.59      14.38      17.37
H      -2.59      21.57      26.01
H       1.71      11.20      25.94
H      -5.57      18.68      17.38
H       4.93      14.37      17.41
H      -3.73      14.36      19.04
H      -4.23      11.27      24.02
H      -4.40      12.42      25.35
H      -5.10      12.79      23.77
H      -3.01      14.11      24.07
H      -2.85      12.99      22.74
H       2.89      18.61      18.98
H       3.48      12.53      17.70
H       4.67      12.64      19.02
H       3.14      11.78      19.27
H       2.99      13.99      20.38
H       1.84      13.88      19.08
H       1.78      19.76      24.46
H      -2.53      19.68      24.38
C      -6.77      16.54      16.25
C       0.78      12.61      24.60
C       0.78      11.57      25.51
C      -4.13      17.74      18.69
C      -5.16      17.74      17.76
C       3.45      15.23      18.72
C       4.47      15.28      17.78
C      -0.36      16.44      21.68
C       6.03      16.52      16.24
C      -3.60      16.52      19.15
C      -5.69      16.53      17.28
C       2.87      16.46      19.14
C       4.94      16.50      17.27
C      -0.43      13.10      24.07
C      -0.43      10.99      25.91
C      -0.37      19.60      24.31
C       0.79      21.22      25.71
C      -0.45      21.73      26.14
C      -1.56      16.49      20.82
C      -0.38      15.20      22.49
C      -4.14      15.30      18.68
C       0.83      16.46      20.81
C      -0.34      17.60      22.60
C      -2.51      16.50      20.07
C      -0.34      18.52      23.39
C      -0.41      14.21      23.20
C       1.78      16.46      20.05
C      -1.60      20.12      24.75
C      -0.49      22.86      27.11
C      -0.44       9.91      26.93
C      -5.17      15.31      17.75
C       3.35      17.68      18.64
C       4.38      17.71      17.71
C      -1.67      12.50      24.44
C      -1.64      11.46      25.36
C       0.83      20.16      24.80
C      -2.95      13.03      23.84
C      -4.23      12.34      24.27
C      -1.64      21.17      25.66
C       2.92      13.93      19.28
C       3.59      12.66      18.79
O      -7.20      17.68      15.86
O      -1.65      23.28      27.47
O       0.70       9.51      27.38
O      -1.58       9.46      27.31
O       0.63      23.33      27.53
O       6.44      17.66      15.85
O       6.46      15.39      15.82
O      -7.19      15.40      15.83
