18

C      24.41      18.35      14.24
O      24.49      18.23      15.51
O      23.42      18.89      13.60
S      26.84      17.05      14.25
S      27.57      16.87      10.13
C      30.00      15.55      10.14
C      25.61      17.84      12.05
C      28.77      16.08      12.32
C      25.50      17.83      13.45
C      28.90      16.09      10.94
H      24.70      18.11      10.23
H      23.84      18.71      11.62
H      29.52      15.63      12.96
C      27.58      16.71      12.73
C      26.81      17.19      11.65
N      24.72      18.43      11.19
O      29.89      15.69       8.87
O      30.97      15.00      10.77
