48

C      14.41      -3.77      15.02
C      15.12      -3.37      16.14
C      20.61      -2.99      23.17
C      19.93      -3.38      22.02
H      15.15      -5.76      19.93
H      20.79      -2.51      18.23
O      21.95      -2.13      25.46
H      13.66      -3.13      14.56
O      13.04      -4.65      12.76
H      14.93      -2.39      16.59
H      15.46      -3.55      21.86
H      18.72      -1.67      16.30
H      21.36      -3.64      23.63
H      20.13      -4.35      21.56
C      15.62      -5.87      15.02
C      16.33      -5.46      16.14
O      20.81      -0.17      25.46
O      14.17      -6.62      12.76
C      19.40      -0.89      23.17
C      18.72      -1.29      22.02
H      14.27      -4.24      19.93
H      19.90      -0.98      18.23
H      15.81      -6.84      14.56
H      17.08      -6.11      16.59
H      16.34      -5.08      21.86
H      19.60      -3.19      16.30
H      19.21       0.08      23.63
H      17.98      -0.63      21.56
C      13.90      -5.47      13.24
C      14.65      -5.03      14.45
C      16.08      -4.21      16.72
C      16.83      -3.78      17.94
C      16.31      -4.08      19.21
C      15.01      -4.83      19.37
C      18.75      -2.67      18.95
C      20.05      -1.92      18.79
C      21.08      -1.32      24.98
C      20.35      -1.74      23.75
C      18.97      -2.54      21.44
C      18.23      -2.97      20.22
C      17.01      -3.67      20.36
C      16.46      -3.99      21.73
C      18.04      -3.07      17.80
C      18.60      -2.75      16.43
H      14.57      -5.08      18.40
H      20.49      -1.66      19.76
H      17.10      -3.62      22.53
H      17.96      -3.13      15.63
