13

H       7.69      10.61      11.72
C       5.80       7.20      12.75
H       4.57       5.67      11.90
C       5.57       5.80      12.33
N       6.06       8.97      14.00
C       6.34       9.30      12.74
N       5.71       7.64      14.01
H       5.67       5.13      13.19
C       6.76      10.65      12.30
H       6.91      11.30      13.17
N       6.18       8.22      11.92
H       6.29       5.52      11.55
H       5.99      11.10      11.64
