12

H       8.27       3.87      15.74
H       8.13       7.04      13.06
H      10.83       4.01      15.77
C      10.16       6.52      13.74
C       8.83       4.61      15.17
C       8.75       6.38      13.68
C      10.21       4.70      15.19
N      10.87       5.64      14.48
N       8.12       5.46      14.39
H      11.79       7.69      13.28
H      10.27       8.14      12.50
N      10.80       7.50      13.07
