24

N       1.61      15.27       6.84
N       1.43      16.09       7.85
H       4.89      13.57       1.84
H       4.89      16.63       4.89
H       1.84      13.57       4.89
C       4.44      14.02       2.73
C       4.44      15.74       4.44
C       2.73      14.02       4.44
N       6.84      15.27       1.61
N       7.85      16.09       1.43
N       1.61      11.63       3.19
N       1.43      10.61       2.38
C       3.30      13.45       3.30
C       2.71      12.25       2.71
N       3.19      16.86       6.84
N       2.38      17.04       7.85
C       5.02      15.16       3.30
C       6.21      15.75       2.71
C       3.30      15.16       5.02
C       2.71      15.75       6.21
N       3.19      11.63       1.61
N       2.38      10.61       1.43
N       6.84      16.86       3.19
N       7.85      17.04       2.38
