35

O       1.40       1.33       1.27
O       0.99      -0.79       1.96
O       4.02       0.17       1.53
O       4.47       2.17       0.54
O       1.32       2.05       8.39
O       4.96       4.55       7.13
H       1.48       6.27      10.82
H       1.27       4.96       8.70
H       5.03       3.05       9.66
H       5.09       4.44      11.77
H       0.49       0.45       6.65
H       0.26      -0.44       4.31
H       5.50       3.40       2.41
H       5.61       4.35       4.73
C       2.24       5.54      10.54
C       2.13       4.82       9.36
C       3.15       3.94       9.02
C       4.22       3.74       9.90
C       4.26       4.51      11.06
C       2.12       2.35       7.50
C       2.09       1.77       6.14
C       2.98       2.21       5.13
C       3.98       3.17       5.45
C       4.11       3.72       6.81
C       1.15       0.79       5.85
C       1.03       0.29       4.55
C       1.84       0.77       3.52
C       2.88       1.70       3.80
C       3.84       2.13       2.83
C       4.78       3.10       3.17
C       4.85       3.62       4.47
C       1.41       0.39       2.13
C       4.08       1.45       1.51
N       3.30       5.41      11.36
N       3.14       3.29       7.75
