13

C       9.91      12.26       5.82
O       7.07      12.16       2.99
O       7.15      14.42       3.16
O      12.05      11.55       6.40
O      10.44       9.97       6.06
C      10.86      11.17       6.11
C       7.28      13.24       3.62
C       7.69      13.14       5.08
C       8.67      12.04       5.36
H       8.08      14.11       5.40
H       6.76      12.95       5.64
H       8.35      11.01       5.18
H      10.28      13.27       5.99
