28

H       4.43       4.89      10.70
C       5.15       6.96      12.61
C       5.46       7.56      11.38
C       6.16       8.78      11.51
C       6.44       9.37      12.75
C       6.07       8.78      13.99
C       5.46       7.53      13.84
C       4.83       6.39      14.62
C       4.39       5.81      13.22
H       6.47       9.31      10.61
C       4.72       7.60       8.87
H       6.95      10.33      12.76
C       4.96       7.01      10.13
H       4.68       4.78      13.00
C       5.93       8.93      16.56
C       5.90      10.85      15.47
H       4.93       8.60       8.52
H       5.98       7.90      16.89
I       2.23       5.83      12.89
N       3.94       5.54       8.77
H       5.90      11.65      14.74
H       5.51       5.73      15.17
C       4.45       5.71       9.99
N       4.10       6.71       8.06
N       5.67       9.91      17.44
N       5.66      11.10      16.77
C       6.08       9.47      15.26
F       3.79       6.73      15.50
