20

N       3.96       8.32      12.55
C       4.35      10.23      14.54
N       4.91      13.38      17.37
C       3.17       9.47      14.48
H       2.37       9.62      15.21
C       5.10       9.03      12.59
H       5.83       8.84      11.80
C       3.01       8.53      13.48
H       2.10       7.94      13.37
C       5.33       9.99      13.57
H       6.23      10.60      13.53
H       2.44      11.91      15.62
H       6.69      11.03      15.75
C       3.45      12.06      16.00
H       2.87      13.71      17.27
C       4.54      11.29      15.55
H       6.94      12.93      17.34
C       5.81      11.59      16.06
C       3.68      13.08      16.91
C       5.96      12.64      16.96
