18

O      23.11      18.35      13.76
C      26.72      17.16      11.65
C      24.25      18.20      14.31
S      26.70      16.98      14.24
S      27.47      16.86      10.14
C      29.92      15.56      10.16
O      24.64      17.97       9.98
C      25.53      17.81      12.08
N      24.67      18.48      11.11
O      24.09      19.52      11.45
C      27.47      16.66      12.74
O      29.86      15.77       8.90
C      28.68      16.05      12.34
O      30.84      14.93      10.79
C      25.37      17.77      13.46
O      24.52      18.35      15.56
H      29.42      15.59      12.99
C      28.81      16.09      10.96
