12

C       7.25      17.74      12.93
C       7.37      22.32       8.51
C       7.27      18.61      12.07
O       6.10      16.40      14.41
C       7.30      19.58      11.14
C       7.32      20.48      10.29
C       7.35      21.44       9.36
O       8.52      23.66       7.02
C       7.37      23.29       7.44
C       7.24      16.76      13.99
O       6.23      23.66       7.02
O       8.38      16.39      14.42
