18

C       9.55      12.76      10.28
N       7.68      13.76       9.58
C       9.26       9.02      14.92
H       6.43       9.76      13.44
C       8.47      12.03      10.82
N       7.09       8.70      15.13
H      10.62      12.62      10.38
C       8.66       9.66      13.82
H      10.31       8.95      15.19
C       7.29       9.41      14.02
N       8.30       8.44      15.71
H      10.21      10.91      12.87
C       9.19      10.53      12.77
C       8.36      10.96      11.79
N       9.05      13.77       9.54
H       7.35      10.53      11.78
H       6.28      12.48      10.51
C       7.33      12.70      10.32
