20

H       2.17      -6.52      13.71
H       1.05      -3.79       9.18
H       2.83      -3.83       9.16
H       2.91      -1.69      10.47
H       1.13      -1.63      10.49
C       1.98      -1.81      13.97
C       2.00      -6.87      11.01
C       2.01      -5.59      11.76
C       2.01      -3.11      13.25
C       1.96      -4.35      11.14
C       2.05      -4.37      13.88
C       2.00      -3.16      11.86
C       2.09      -5.57      13.17
C       1.95      -3.64       9.79
C       2.00      -2.29      10.61
Br       2.13      -4.49      15.78
O       2.91      -0.98      13.69
O       1.02      -1.59      14.77
O       2.94      -7.70      11.26
O       1.06      -7.04      10.18
