13

C       2.82      16.19      19.73
O       3.43      15.80      23.92
C       2.78      16.18      21.14
S       5.27      16.34      20.51
H       1.95      16.12      19.08
C       4.38      16.14      23.14
H       1.87      16.11      21.74
C       4.12      16.26      19.24
O       3.58      15.94      16.99
C       4.53      16.15      17.83
O       5.59      16.37      23.48
O       5.76      16.25      17.55
C       4.04      16.25      21.71
