14

C       4.18       1.51       1.89
I       7.07       1.84       3.89
H       3.17       2.79       3.28
H       5.62       3.40       5.94
I       2.83       5.47       3.84
O       2.98       5.76       6.98
O       5.21       5.41       7.22
C       4.11       5.33       6.58
C       5.13       2.68       3.96
C       4.15       2.37       3.08
O       3.03       1.20       1.42
C       4.96       3.57       5.09
C       4.13       4.63       5.25
O       5.30       1.16       1.39
