76

H       1.92       4.87      18.17
H       1.47       4.86      37.77
H       2.89       1.90      24.50
H       2.28       8.12      31.51
H       5.76       4.98      35.29
H       6.01       5.71      20.86
C       4.04       5.28      16.61
C       3.52       4.99      39.44
C       3.62       3.96      22.96
C       3.19       6.16      33.08
C       4.02       6.44      23.03
C       4.03       3.79      33.02
C       5.10       5.53      20.28
C       4.81       4.94      35.82
C       5.14       5.59      18.90
C       4.80       4.90      37.21
C       2.80       5.07      18.77
C       2.41       4.86      37.22
C       2.74       5.05      20.16
C       2.40       4.86      35.82
C       3.90       5.25      20.92
C       3.61       4.92      35.12
C       3.63       5.16      25.18
C       3.52       5.00      30.87
C       3.46       3.97      24.43
C       3.14       6.15      31.60
C       3.10       2.80      25.08
C       2.65       7.27      30.94
C       3.93       6.38      24.51
C       3.97       3.84      31.54
C       4.01       5.34      18.11
C       3.60       4.89      37.94
C       3.71       3.84      28.69
C       3.56       6.34      27.35
C       3.20       6.27      28.77
C       3.40       3.87      27.27
C       3.48       5.04      29.44
C       3.53       5.13      26.60
C       4.28       2.75      29.37
C       4.00       7.50      26.69
C       4.39       2.75      30.78
C       4.16       7.51      25.29
C       3.04       2.77      26.47
C       2.66       7.31      29.55
N       3.85       5.22      22.36
N       3.62       4.96      33.69
N       6.13       4.82      37.85
N       6.41       6.01      18.29
N       4.97       1.54      31.40
N       4.59       8.79      24.67
N       2.42       1.56      27.06
N       1.92       8.44      28.94
Cl       1.22       4.80      20.93
Cl       0.90       4.76      34.98
Cl       4.94       1.41      28.52
Cl       4.45       8.92      27.55
O       5.14       4.98      16.06
O       2.41       4.64      39.96
O       2.93       5.48      16.02
O       4.53       5.44      40.04
O       3.56       2.94      22.29
O       2.88       7.14      33.76
O       4.41       2.81      33.64
O       4.24       7.48      22.42
O       6.97       5.67      37.50
O       6.34       3.90      38.65
O       7.42       5.34      18.56
O       6.40       7.02      17.57
O       4.19       0.62      31.64
O       6.19       1.55      31.55
O       3.71       9.62      24.44
O       5.81       8.94      24.54
O       2.54       0.50      26.44
O       1.76       1.72      28.10
O       1.89       9.50      29.56
O       1.33       8.20      27.88
