17

O       8.98       8.56       8.68
O       7.83       8.21       6.79
C       8.06       7.96       8.01
C       7.23       6.95       8.72
C       7.34       6.78      10.05
C       6.56       5.86      10.87
C       5.57       5.01      10.36
C       4.84       4.22      11.24
C       6.01       5.03      13.07
C       6.79       5.84      12.26
N       5.04       4.24      12.57
H       6.51       6.39       8.11
H       8.07       7.40      10.58
H       5.34       4.97       9.29
H       4.07       3.53      10.88
H       6.14       5.00      14.15
H       7.57       6.46      12.69
