21

H      11.39      11.79       3.89
H      13.73      14.24       6.55
H      11.49      16.08       3.36
H      15.20      16.26       5.98
C      10.20      13.87       2.52
C      11.30      13.92       3.54
C      11.75      12.77       4.19
C      12.64      12.89       5.26
C      13.08      14.15       5.68
C      12.67      15.28       4.98
C      11.78      15.18       3.91
C      14.37      16.94       5.81
C      13.18      11.69       5.97
N      13.16      16.56       5.34
N      14.39      18.25       5.96
N      13.15      18.68       5.56
N      12.41      17.69       5.19
O       9.03      13.67       2.99
O      10.49      14.08       1.30
O      13.83      10.85       5.25
O      12.97      11.62       7.22
