34

H       2.92       0.38      21.73
C       4.63      -2.87      20.37
C       2.35      -1.92      19.95
H       4.36      -3.63      22.40
C       2.13      -2.14      21.46
C       2.88      -1.35      24.80
C       3.85      -1.74      19.64
C       4.31      -0.38      20.22
C       4.55      -2.68      21.89
H       4.19      -3.83      20.07
C       3.42      -1.68      22.22
H       1.79      -1.04      19.60
C       1.30      -3.88      22.92
H       1.95      -2.80      19.42
H       1.29      -1.53      21.83
H       5.40      -0.32      20.17
H       5.67      -2.86      20.02
H       3.91       0.43      19.60
H       4.57       0.16      22.33
O       1.67      -1.78      26.75
O       1.81      -3.52      21.63
O       5.31      -1.55      14.99
O       2.54       0.29      26.38
O       4.55      -3.66      15.42
H       0.57      -3.14      23.28
H       2.10      -3.97      23.67
H       0.80      -4.85      22.79
H       5.49      -2.27      22.30
C       4.73      -2.44      15.72
C       3.16      -1.56      23.64
C       4.09      -1.85      18.22
C       4.30      -2.04      17.03
C       2.35      -0.92      26.07
C       3.80      -0.27      21.67
