16

C      12.19       1.52       2.29
O      15.89       3.79       7.09
O      11.19       0.91       2.78
O      12.44       1.68       1.05
O      17.16       4.54       5.36
H      14.33       2.85       1.61
C      13.17       2.12       3.25
C      15.26       3.40       3.47
C      13.09       2.05       4.66
C      14.27       2.80       2.70
C      14.08       2.65       5.44
C      15.17       3.33       4.88
H      14.01       2.61       6.52
Cl      16.52       4.19       2.61
Cl      11.82       1.26       5.53
C      16.15       3.94       5.85
