40

H       5.02      10.31       5.94
H       5.63       8.82       6.52
H      11.10      11.79       8.47
H      10.48      13.28       7.89
H       4.44      12.28       7.51
H       2.58      13.32       6.21
H       2.99      14.13       3.89
H       5.26      13.90       2.88
H       7.10      12.88       4.18
H       8.99       9.17      10.24
H      10.84       8.13      11.53
H      13.11       7.93      10.53
H      13.53       8.81       8.24
H      11.68       9.87       6.96
C       7.94       8.16       7.25
C       8.16      13.94       7.20
C       6.90      10.38       6.71
C       9.21      11.72       7.73
C       6.99      11.79       6.66
C       9.12      10.31       7.79
C       8.13      12.45       7.17
C       7.98       9.65       7.28
C       5.90      12.51       5.94
C       4.61      12.63       6.49
C       3.58      13.23       5.76
C       3.80      13.69       4.46
C       5.07      13.56       3.90
C       6.11      12.98       4.63
C      10.21       9.59       8.51
C       9.99       9.08       9.80
C      11.02       8.49      10.52
C      12.30       8.39       9.96
C      12.54       8.89       8.68
C      11.50       9.49       7.96
N       5.83       9.73       6.12
N      10.29      12.38       8.31
O       9.03       7.55       6.98
O       7.07      14.55       7.46
O       6.82       7.58       7.46
O       9.28      14.53       7.00
