20

C      20.79      13.82       2.45
H      23.67      14.45       4.89
N      22.01       9.50      -0.11
N      21.84      15.10       4.19
H      23.15      10.55       2.86
H      20.75      10.49      -1.42
C      22.62      10.60       1.92
C      21.26      10.56      -0.46
H      20.61      12.55      -0.02
H      23.84      12.54       3.29
H      20.00      15.61       3.40
H      23.25       8.62       1.29
C      21.18      11.70       0.34
H      19.92      13.68       1.81
C      22.95      13.17       3.29
C      22.88      14.25       4.16
C      21.88      11.73       1.55
C      21.87      12.92       2.43
C      20.82      14.89       3.34
C      22.66       9.51       1.06
