25

C       5.59      11.54       0.55
N       2.65      10.80       2.32
H       6.59      13.34       1.14
C       6.60      12.50       0.45
N       4.24      12.42       2.51
H       8.38      13.09      -0.64
C       7.58      12.35      -0.53
N       5.52      10.45      -0.28
H       8.27      11.07      -2.15
C       7.52      11.23      -1.37
N       0.99      13.30       6.44
H       6.40       9.42      -1.84
C       6.49      10.31      -1.21
H       0.75      10.97       4.00
C       2.37      12.40       4.15
H      -0.41      11.81       6.03
C       1.17      11.80       4.57
H       2.49      14.71       6.66
C       0.52      12.27       5.69
H       3.78      13.97       4.65
C       2.14      13.88       6.04
C       4.51      11.59       1.49
C       2.85      13.47       4.93
C       3.09      11.90       3.00
N       3.57      10.60       1.36
