14

C       5.13       1.46      10.50
Cl       7.72       1.86      11.26
H       6.96      -0.26      12.79
O       6.25       2.82       8.92
H       3.91       0.20      12.77
H       4.18       0.96      10.67
O       6.04      -1.70      14.45
C       5.13       2.43       9.39
O       3.98       2.79       8.98
C       4.90      -1.26      14.07
O       3.77      -1.64      14.52
C       6.03       0.18      12.43
C       4.88      -0.22      13.03
C       6.14       1.15      11.35
