14

H       5.06       3.33      13.77
N       6.65       0.03      16.21
N       5.83       1.73      14.51
H       6.04      -2.48      15.52
C       6.28      -0.48      15.05
N       5.97      -1.75      14.80
C       6.20       0.57      14.00
N       6.51       0.31      12.74
H       6.45       1.04      12.00
H       5.76      -2.07      13.85
O       6.61      -0.90      17.27
O       5.87       2.79      13.59
H       7.42      -0.71      17.81
H       6.72      -0.63      12.41
