20

O       7.33       2.92       5.78
H       9.06       7.71       3.08
H       7.30       6.70       4.51
H      10.35       2.36       5.21
H       9.45       1.86       3.76
H      12.14       3.39       3.75
H      11.24       2.89       2.30
C      11.30       6.55       2.09
C      10.32       4.60       3.37
C      10.26       5.93       2.95
C       9.14       6.67       3.39
C       8.15       6.10       4.19
C       8.23       4.75       4.61
C       9.33       4.03       4.17
C      10.02       2.68       4.21
C      11.14       3.33       3.30
C       7.17       4.15       5.46
O      11.15       7.78       1.78
O      12.27       5.79       1.74
O       6.20       4.91       5.81
