22

H       6.42       2.08       9.36
H       5.00       0.77      10.88
H       6.58      -2.90       9.30
H       5.09      -1.73      10.86
C       8.14       2.58       7.54
C       8.20      -3.24       7.35
C       8.16       1.08       7.52
C       7.31       0.34       8.40
C       9.01       0.42       6.64
C       6.45       0.99       9.33
C       5.65       0.25      10.18
C       8.20      -1.74       7.43
C       9.03      -1.00       6.59
C       7.34      -1.09       8.36
C       6.53      -1.82       9.28
C       5.70      -1.16      10.16
Cl      10.05      -1.78       5.45
Cl      10.01       1.30       5.54
O       9.22       3.16       7.85
O       9.29      -3.83       7.62
O       7.10      -3.80       7.07
O       7.04       3.15       7.25
