24

H       1.86      13.69       7.66
C      -1.96      17.13       4.42
H      -3.24      18.99       6.80
H       3.24      12.22       9.07
C       1.96      14.08      11.46
C      -1.17      16.25       5.14
N      -2.67      18.12       5.00
H       0.22      14.65       6.74
C       1.17      14.96      10.73
H      -0.22      16.56       9.13
N       2.67      13.09      10.87
C      -1.06      16.37       6.54
C       1.06      14.84       9.33
C      -1.86      17.38       7.14
C       1.86      13.84       8.73
C      -2.63      18.21       6.36
C       2.63      13.00       9.52
C      -0.18      15.51       7.29
H      -2.02      17.07       3.33
C       0.18      15.70       8.58
H       2.02      14.14      12.54
H      -0.60      15.49       4.61
H       0.60      15.73      11.26
H      -1.86      17.53       8.22
