38

Cl      10.73      12.19       1.72
Cl       9.61      16.52       4.90
H      11.52       6.25      11.31
F      12.02      14.66       5.69
H      11.22       9.95      13.52
H      12.67      10.64      11.23
H       9.69       7.89       9.75
H       8.63       8.28       7.55
H       8.30       9.71       5.56
H       8.85      11.77       4.27
H      13.07      14.00       7.85
H      13.35      12.60       9.87
C      10.18      14.08       3.68
C      11.48       7.04      12.06
C      11.35       8.92      13.18
C      10.38      13.75       2.33
C      11.30       8.42      11.88
C      11.95      10.35      10.46
C      11.18       9.19      10.64
C      10.30       8.79       9.62
C      10.14       9.56       8.45
C      10.90      10.76       8.30
C      11.83      11.14       9.31
C       9.20       9.20       7.42
C       9.02       9.99       6.32
C       9.77      11.20       6.14
C      10.72      11.57       7.14
C      11.49      12.76       7.00
C      12.46      13.11       7.99
C      12.62      12.33       9.11
C       9.59      12.04       5.03
C      10.32      13.23       4.87
C      11.26      13.54       5.86
C       9.97      15.47       3.61
N      11.64       6.75      13.37
N      11.54       7.93      14.07
N      10.31      14.83       1.53
N      10.05      15.91       2.33
