22

H       4.03      12.07       4.80
H       8.06      16.25       4.87
H       9.04      15.20       3.79
H       9.08      13.40       5.50
C       5.86      12.08       6.86
C       6.94      13.68       5.24
C       5.89      12.82       5.57
C       4.85      12.76       4.63
C       4.86      13.55       3.46
C       5.91      14.48       3.19
C       6.93      14.51       4.12
C       8.21      15.22       4.51
C       8.31      14.16       5.70
C       5.89      15.36       1.98
C       3.78      13.38       2.53
C       8.50      14.60       7.07
N       2.88      13.21       1.81
N       8.67      14.89       8.18
O       6.99      11.84       7.38
O       4.71      11.80       7.32
O       4.75      15.76       1.60
O       7.03      15.61       1.47
