32

H       2.31       3.71       1.87
H       1.26       5.88       2.56
H       1.29       7.89       4.00
H       2.38       9.22       5.81
H       6.19       8.03       7.40
H       7.23       5.88       6.68
H       7.24       3.93       5.21
H       7.41       2.95       3.50
H       6.58       1.90       2.40
C       4.28       9.91       7.60
C       5.41       3.32       3.27
C       4.24       3.04       2.49
C       3.15       3.93       2.52
C       3.16       5.09       3.29
C       4.27       5.32       4.17
C       5.37       4.41       4.19
C       2.10       6.06       3.24
C       2.11       7.17       4.04
C       3.19       7.40       4.96
C       4.27       6.46       5.01
C       5.36       6.69       5.91
C       6.41       5.72       5.97
C       6.42       4.64       5.13
C       3.20       8.51       5.82
C       4.28       8.73       6.69
C       5.36       7.84       6.72
C       4.15       1.87       1.59
N       6.54       2.55       3.18
O       3.15      10.44       7.84
O       5.40      10.27       8.10
O       3.01       1.56       1.09
O       5.23       1.22       1.34
