28

H       5.19      14.41       0.27
H      10.78      17.58      -0.27
H       7.94      12.78      -0.26
H       8.03      19.21       0.26
H       6.01      17.18      -0.89
H       9.96      14.81       0.89
C       7.98      15.99       5.44
C       7.97      16.02       1.38
C       8.00      15.98      -1.38
C       7.96      16.01       2.79
C       7.99      16.00      -5.44
C       8.00      15.98      -2.79
C       6.88      16.66      -0.48
C       9.09      15.33       0.48
C       6.85      15.39       0.44
C       9.12      16.60      -0.44
C       7.98      15.99       4.01
C       7.99      16.00      -4.01
C       7.99      17.29       0.44
C       7.98      14.71      -0.44
O       7.98      14.86      -6.01
O       7.99      14.84       6.01
O       7.98      17.15      -6.01
O       7.98      17.13       6.01
O       5.75      14.76       0.99
O      10.22      17.23      -0.99
O       7.94      13.44      -0.98
O       8.03      18.55       0.98
