18

O      -3.25       5.65      13.22
H      -6.36       3.36      13.84
C      -4.39       5.17      13.54
C      -3.30       3.71      15.27
O      -5.53       5.60      13.17
C      -3.34       2.62      16.13
N      -2.23       2.50      17.10
O      -1.08       2.53      16.64
H      -2.43       4.37      15.25
O      -2.54       2.43      18.30
C      -4.45       0.49      16.97
C      -4.43       1.74      16.15
H      -6.36       1.33      15.31
C      -5.52       2.01      15.31
O      -3.33      -0.08      17.17
C      -5.51       3.13      14.48
O      -5.60       0.08      17.34
C      -4.40       3.97      14.44
