36

H      11.56       0.94       0.49
H      10.65       2.48       0.50
H      11.92       2.20      -0.74
H       5.31      -2.48      -0.50
H       4.39      -0.94      -0.49
H       4.03      -2.20       0.74
H       9.96      -1.07       0.98
H       6.79       3.45      -0.75
H       5.99       1.07      -0.98
H       8.57       3.52      -0.96
H       7.77       4.57       0.26
H       7.38      -3.52       0.96
H       9.16      -3.45       0.75
H       8.19      -4.57      -0.26
C       8.00      -0.09      -2.84
C       7.95       0.09       2.84
C       9.09       0.61      -0.49
C       6.86      -0.61       0.49
C       9.09      -0.60       0.52
C       6.87       0.60      -0.52
C       7.97       0.11       1.36
C       7.99      -0.11      -1.36
C       7.95       1.32       0.37
C       8.01      -1.32      -0.37
C      11.13       1.73      -0.15
C       4.82      -1.73       0.15
C       7.75       3.59      -0.23
C       8.20      -3.59       0.23
O       8.18      -1.05       3.38
O       8.23      -1.19      -3.45
O       7.72       1.19       3.45
O       7.77       1.05      -3.38
O      10.19       1.17      -1.09
O       5.76      -1.17       1.09
O       7.91       2.62       0.82
O       8.04      -2.62      -0.82
