10

O       0.74       5.57       6.11
H      -1.72       6.28       7.02
H      -1.64       3.33       6.09
C      -3.56       5.10       6.71
C       0.22       4.44       6.41
C      -2.09       5.31       6.70
C      -1.25       4.31       6.35
O      -4.02       4.14       6.02
O       0.86       3.39       6.76
O      -4.23       5.92       7.44
