13

H       3.07       4.53       8.74
C       4.91       4.34       7.61
O       8.40       3.95       6.64
H       6.27       3.07      10.97
C       5.91       3.43      10.00
C       4.13       4.26       8.76
O       6.58       4.18       5.34
C       6.76       3.50       8.90
C       7.15       4.04       6.48
H       7.80       3.19       8.98
N       4.62       3.81       9.94
H       4.48       4.69       6.68
C       6.26       3.97       7.69
