36

H       5.22       7.78      13.43
H       8.61      13.88       9.49
H       8.93       9.51      14.68
H       4.90      12.14       8.23
H       9.73      13.10      11.55
H       4.10       8.56      11.36
H      10.90      12.36      13.43
H       9.83      11.81      14.74
H      10.76      10.63      13.81
H       2.93       9.30       9.49
H       3.07      11.03       9.11
H       3.99       9.85       8.17
C       7.10       7.65      15.33
C       6.73      14.00       7.59
C       6.01       8.51      13.26
C       7.82      13.15       9.66
C       7.08       8.57      14.15
C       6.75      13.09       8.76
C       8.11       9.51      13.97
C       5.72      12.15       8.94
C       8.06      10.44      12.92
C       5.77      11.22       9.99
C       6.96      10.37      12.00
C       6.87      11.29      10.92
C       5.94       9.38      12.16
C       7.89      12.27      10.75
C       9.07      11.46      12.75
C       4.76      10.19      10.16
C       8.96      12.33      11.70
C       4.87       9.33      11.22
C      10.20      11.57      13.73
C       3.63      10.08       9.18
O       8.22       7.47      15.93
O       5.61      14.19       6.99
O       5.99       7.13      15.66
O       7.84      14.52       7.26
