66

H      15.28       5.81       1.92
H      15.19       3.46       3.54
H      16.32       1.46       4.45
H      16.81      -0.49       2.97
H      16.14      -0.39       0.57
H      15.05       1.59      -0.35
H      17.24       6.28       2.66
H      19.69       5.93       2.78
H      20.80       4.31       1.23
H      19.41       3.05      -0.42
H      16.99       3.39      -0.53
H      13.75       4.26       1.94
H      12.77       6.28      -2.77
H      12.55       7.49      -4.89
H      14.57       8.13      -6.21
H      16.84       7.51      -5.34
H      17.06       6.30      -3.20
H      11.74       3.79      -2.57
H      11.21       3.06      -4.85
H      13.03       2.42      -6.44
H      15.40       2.52      -5.67
H      15.94       3.25      -3.37
H      13.61       6.93       1.25
H      12.19       5.23       1.12
H      16.22       5.16      -1.56
H      15.13       3.34      -1.17
C      16.00       7.35      -0.04
C      12.54       2.85      -0.03
C      16.93       4.88       1.04
C      17.72       5.57       1.97
C      19.10       5.37       2.05
C      19.72       4.47       1.18
C      18.94       3.77       0.26
C      17.56       3.97       0.18
C      15.04       2.70       1.52
C      15.41       2.61       2.88
C      16.04       1.49       3.40
C      16.32       0.40       2.57
C      15.95       0.45       1.22
C      15.32       1.59       0.70
C      15.44       5.21       1.01
C      14.41       4.02       1.10
C      14.94       6.23      -2.80
C      13.68       6.57      -3.30
C      13.55       7.24      -4.52
C      14.68       7.60      -5.26
C      15.94       7.25      -4.78
C      16.06       6.57      -3.56
C      13.88       3.59      -2.79
C      12.56       3.51      -3.24
C      12.25       3.10      -4.53
C      13.27       2.74      -5.42
C      14.59       2.80      -4.99
C      14.89       3.21      -3.69
C      13.58       6.60       0.21
C      12.64       5.38       0.13
C      15.16       5.43      -1.52
C      14.36       4.07      -1.43
C      15.02       6.18      -0.17
C      13.45       4.08      -0.16
I      12.92       8.51      -0.64
I      10.72       5.62      -0.93
O      16.97       7.38      -0.86
O      12.74       1.89      -0.83
O      11.70       2.88       0.92
O      15.80       8.14       0.94
