10

C       1.32       5.27      14.89
C      -0.03       6.78      13.10
C       1.36       6.80      13.15
C      -0.06       5.24      14.84
H       1.91       4.69      15.60
N       2.01       6.05      14.04
N      -0.72       5.99      13.94
H      -0.67       4.63      15.50
H       1.96       7.41      12.48
H      -0.61       7.37      12.40
