26

H       9.45      12.01       8.31
H      13.51      18.97       9.25
H       9.42      18.87       7.92
H       9.46      16.43       7.97
H      13.61      12.09       9.38
H      13.58      14.53       9.31
C      11.43      20.59       8.60
C      11.57      10.38       8.81
C      11.54      11.87       8.84
C      11.45      19.10       8.58
C      10.37      12.55       8.53
C      10.36      13.94       8.49
C      12.61      18.42       8.97
C      12.61      17.04       9.03
C      10.33      18.35       8.22
C      10.36      16.97       8.26
C      12.69      12.61       9.13
C      12.66      14.00       9.09
C      11.50      14.74       8.75
C      11.50      16.23       8.69
O      10.31      21.16       8.40
O      10.47       9.78       8.55
O      12.70       9.82       9.00
O      12.53      21.18       8.86
F       9.15      14.49       8.18
F      13.79      16.49       9.47
