60

O       5.98      10.79       7.74
O       4.86       8.06      -7.75
O       4.84      10.32      -7.67
O       6.43       8.57       7.63
H       5.13       7.01      -2.96
H       5.43      11.38       2.81
H       4.31       7.28       3.45
H       5.46      11.29      -2.97
H       1.57       7.71      -1.01
H       0.97       8.48      -2.50
H       2.52       7.60      -2.51
H       1.92      10.24      -1.03
H       2.89      10.08      -2.48
H       8.88       9.99       1.08
H       7.92      10.50       2.49
H       9.19       9.27       2.68
H       7.01       8.15       2.69
H       7.90       7.67       1.26
H       2.12      11.62       0.79
H       1.14      11.12       2.19
H       2.87      11.46       2.39
H       1.62       9.11       0.82
H       2.44       8.99       2.37
H       7.72      10.61      -2.42
H       8.36      10.76      -0.78
H       9.30       9.91      -2.03
H       8.30       8.19      -0.61
H       7.48       8.16      -2.17
C       5.98       9.66       7.16
C       4.98       9.18      -7.15
C       3.85       9.35      -0.70
C       6.19       8.89       0.86
C       3.76       9.34       0.71
C       6.28       8.93      -0.55
C       4.93       9.14       1.46
C       5.11       9.16      -1.30
C       5.22       7.95      -4.90
C       5.51      10.68       4.85
C       4.92       8.39       5.20
C       5.41      10.33      -4.90
C       5.17       7.96      -3.50
C       5.29      10.53       3.48
C       4.67       8.24       3.83
C       5.36      10.35      -3.51
C       5.19       9.16      -2.79
C       4.93       9.29       2.95
C       5.24       9.14      -5.66
C       5.44       9.59       5.75
C       2.61       9.56      -1.55
C       1.88       8.27      -1.91
C       7.38       8.52       1.72
C       8.40       9.64       2.00
C       2.44       9.55       1.42
C       2.12      11.02       1.71
C       7.61       8.76      -1.25
C       8.28      10.09      -1.64
I       5.39       5.98      -5.67
I       5.97      12.68       5.38
I       4.39       6.69       6.35
I       5.94      12.23      -5.71
