26

C      11.41      23.28      18.52
C      12.49      24.38      18.45
C      13.31      24.40      19.76
C      14.05      23.05      19.90
C      13.04      21.88      19.83
C      11.60      22.44      19.82
C      11.40      23.36      21.04
C      12.35      24.57      20.95
H      10.40      23.71      18.52
H      11.48      22.61      17.65
H      13.17      24.22      17.60
H      12.02      25.37      18.30
H      14.80      22.97      19.10
H      14.59      23.04      20.85
H      13.19      21.28      18.93
H      13.16      21.21      20.69
O      10.82      20.34      18.99
O       9.53      21.44      20.50
H      12.93      24.69      21.88
H      11.78      25.51      20.83
H      10.35      23.68      21.08
H      11.59      22.78      21.95
O      15.19      25.43      18.74
O      14.24      26.48      20.52
C      10.58      21.32      19.78
C      14.32      25.53      19.68
