32

C      13.71       5.39       8.21
C      13.54       4.38       4.63
C      12.82       3.51       3.82
C      10.51       3.09       9.83
C      10.77       3.03       8.45
C      11.84       3.81       7.92
C       9.97       2.25       7.57
C      10.21       2.20       6.21
C      11.36       2.91       5.67
C      12.13       3.74       6.53
C      11.74       2.78       4.33
C      11.27       3.93      10.66
H      14.38       4.94       4.21
C      13.26       3.24       2.43
H      14.84       5.88       6.47
H      14.32       6.01       8.88
H      11.23       2.09       3.64
N       9.43       1.42       5.37
H       9.11       1.72       7.98
H       9.70       2.51      10.26
H      12.87       5.35      10.82
O      12.83       2.18       1.87
O      14.10       4.07       1.89
O      11.36       5.07      12.72
O      10.06       3.23      12.59
H       8.50       1.22       5.73
H       9.39       1.73       4.40
C      10.89       4.09      12.09
C      12.31       4.70      10.14
C      12.63       4.64       8.78
C      13.23       4.50       5.99
C      14.00       5.32       6.88
