10

O       5.28      17.19       1.55
C       4.17      14.25       6.54
C       4.16      14.88       5.50
C       4.15      15.57       4.34
C       4.14      16.20       3.29
O       3.00      17.16       1.53
C       4.18      13.52       7.79
C       4.14      16.91       2.03
O       5.32      13.29       8.31
O       3.04      13.20       8.26
