24

O      13.86       2.04       5.49
O      13.18       2.03       3.33
O      11.74       5.77      -1.55
O      11.56       7.95      -2.25
H      13.48       4.19       6.65
H      13.03       6.67       6.74
C      12.99       6.12       5.80
C      13.24       4.76       5.75
C      13.17       4.09       4.53
C      12.85       4.82       3.39
H      12.79       4.29       2.44
C      12.32       7.06       2.36
C      12.13       6.61       1.06
H      12.19       5.56       0.79
C      12.63       6.19       3.49
C      11.87       7.52       0.04
C      13.43       2.60       4.44
C      11.96       9.27       1.69
C      11.79       8.88       0.37
C      11.70       7.01      -1.39
H      11.59       9.61      -0.42
H      11.89      10.32       1.98
N      12.71       6.83       4.69
N      12.23       8.38       2.67
