17

H      26.26      12.78       3.30
H      30.30      10.27       4.76
O      29.93      13.88       6.30
O      27.77      14.08       4.92
H      28.51      14.33       5.55
O      25.38      11.03       1.88
C      29.41      10.80       4.43
O      26.62       9.12       1.84
C      30.18      12.69       5.86
C      29.20      12.11       4.92
C      27.37      10.93       3.15
C      28.05      12.83       4.50
C      28.51      10.21       3.56
C      27.14      12.23       3.62
C      26.38      10.31       2.22
O      31.20      12.01       6.17
H      28.67       9.20       3.18
