16

C      11.08      11.09       6.06
C      13.62      13.63       5.59
C      11.20      11.23       7.43
C      13.48      13.51       4.21
C      12.75      12.75       6.26
C      11.96      11.96       5.39
O      13.91      13.99       1.96
O      10.73      10.80       9.68
O       9.59       9.66       8.07
C      10.45      10.51       8.47
S      12.39      12.41       7.91
S      12.30      12.32       3.74
C      14.20      14.27       3.18
O      15.06      15.12       3.58
H      10.38      10.40       5.61
H      14.32      14.33       6.04
