30

H      25.15       5.57       5.56
H      24.61       7.05       3.58
O      24.29       2.97       8.38
H      17.39       6.62       3.74
O      25.89       4.34       7.55
H      20.54       8.43       1.45
H      17.94       5.11       5.70
H      22.01       3.66       7.77
C      24.09       5.39       5.69
C      23.15       6.00       4.84
C      23.55       6.85       3.76
C      22.31       4.31       6.95
O      16.64       8.17       2.01
O      18.29       8.72       0.54
C      21.35       4.91       6.13
C      19.94       4.72       6.30
C      18.46       6.77       3.59
C      19.40       6.15       4.43
C      19.00       5.30       5.51
C      20.24       7.80       2.29
F      23.00       8.23       1.93
F      19.55       3.90       7.32
C      21.20       7.22       3.13
C      22.61       7.42       2.96
C      23.67       4.55       6.73
C      21.76       5.77       5.05
C      24.70       3.91       7.61
C      18.88       7.58       2.53
C      20.79       6.38       4.21
C      17.86       8.20       1.62
