26

C      13.94       3.96       2.90
C      14.66       3.25       3.92
H      12.07       3.00       3.06
H      13.32       1.65       4.23
C      12.63       3.79       2.56
C      14.23       2.14       4.59
H       9.95       2.81       2.40
H       8.66       3.58       1.63
N      14.79       0.50       7.80
N      11.11       6.40       0.46
H      13.15      -0.49       5.21
H      13.14      -1.17       6.75
H      14.49       4.78       2.42
N      15.75       1.50       7.85
N       9.66       3.39       1.62
H      13.13       6.40       1.07
N      10.04       5.52       0.64
N      13.20      -0.31       6.21
H      16.41       3.00       6.53
H      15.60       3.71       4.24
C      14.22       0.55       6.58
C      12.18       5.87       1.08
C      15.74       2.16       6.68
C      11.85       4.64       1.69
C      10.48       4.47       1.36
C      14.77       1.62       5.82
