44

H      10.45      14.40       7.08
H       7.09      16.56       6.75
H      10.32      11.91       7.19
H       7.12      19.04       7.04
H       6.46      12.22       9.01
H      10.52      18.68       9.61
H       5.05      17.15      10.30
H       4.42      15.70      11.11
H       5.51      16.80      11.98
H       6.79      14.78      11.23
H       7.37      16.23      10.41
H       5.92      15.68       8.43
H       5.38      14.21       9.24
H      11.72      13.89      11.23
H      12.13      15.41      12.05
H      10.91      14.32      12.74
H       9.80      16.27      11.59
H       9.39      14.76      10.79
H      11.15      15.17       9.08
H      11.62      16.66       9.89
C       8.31      10.43       8.28
C       9.76      18.19       9.00
C       7.40      14.11       8.57
C       9.74      16.80       8.89
C       8.56      14.72       8.05
C       8.73      16.20       8.10
C       8.83      20.48       8.57
C       9.59      13.92       7.53
C       7.82      17.02       7.41
C       6.23      14.89       9.14
C       6.51      15.56      10.50
C       5.30      16.35      11.01
C       9.52      12.53       7.58
C      10.76      16.01       9.67
C      10.22      15.45      11.00
C      11.30      14.73      11.80
C       7.84      18.41       7.55
C       8.39      11.91       8.14
C       8.80      19.00       8.37
C       7.34      12.71       8.60
O       9.38       9.76       8.15
O       7.75      21.11       8.34
O       7.16       9.94       8.53
O       9.93      21.01       8.94
