14

H      -0.07       0.23      13.85
H       0.43      -1.56      11.40
O      -0.05       3.51      10.40
C       0.04      -0.01      12.79
C       0.24      -1.29      12.43
C       0.02       1.11      11.87
C      -0.40       1.17      10.58
H       0.39       2.06      12.25
O      -0.09       2.25       8.51
I      -1.38      -0.37       9.53
O       0.02      -2.23      14.61
C       0.23      -2.43      13.37
C      -0.17       2.41       9.77
O       0.43      -3.56      12.80
