34

H      21.39      15.33       5.91
H      20.74      16.60       5.02
H      22.88      15.62       7.72
H      23.80      19.63       8.96
H      22.04      20.50       7.42
H      19.66      18.37       5.48
H      21.22      21.01       5.45
H      17.80      19.53       5.25
H      15.94      20.43       3.86
H      18.62      23.30       2.13
H      21.59      21.85       3.54
H      20.93      23.11       2.62
N      21.02      16.27       5.94
N      20.80      22.49       3.42
O      14.96      21.86       2.10
O      16.31      23.59       1.48
O      25.19      17.87       9.98
O      24.48      15.75       9.51
C      21.74      17.17       6.72
C      22.69      16.69       7.63
C      23.43      17.57       8.43
C      23.22      18.96       8.33
C      22.25      19.43       7.45
C      21.49      18.57       6.64
C      20.46      19.07       5.75
C      20.39      20.33       5.24
C      19.30      20.85       4.44
C      17.99      20.33       4.53
C      16.95      20.84       3.78
C      17.18      21.92       2.92
C      18.46      22.47       2.81
C      19.53      21.94       3.54
C      16.07      22.50       2.11
C      24.44      17.03       9.37
