28

C       9.50       5.95       1.27
F       8.94       7.97       6.53
F      10.94       4.96       3.45
H       5.45       7.96       4.08
H       5.90       7.85       5.79
H       5.15       9.34       5.16
H       7.61       9.68       5.47
C       8.26       8.02       4.28
H       7.18       9.80       3.77
C       9.31       6.47       2.67
C       7.57       8.07       1.89
H      10.21       7.82       0.38
H      11.51       6.76       0.94
H      10.63       6.37      -0.55
H       9.83       4.90       1.31
C       9.06       7.46       5.28
H       8.53       5.95       0.75
C      10.08       5.97       3.73
C       9.99       6.43       5.05
C      10.82       5.86       6.15
C       8.41       7.50       2.99
O       6.52       7.42       1.57
C       7.25       9.10       4.61
O       7.98       9.16       1.35
C      10.52       6.77       0.46
O      10.29       5.80       7.31
C       5.86       8.53       4.93
O      12.00       5.49       5.84
