40

H       3.65      16.53       8.08
H       0.08      20.57       5.82
H       1.55      22.40       7.35
H       3.99      11.32      12.44
H       3.55      20.09      11.29
H       1.41      15.48      13.80
H       3.99      14.03       7.97
H       3.38      22.61      11.24
C       3.76      12.28       9.84
C       3.72      13.75      10.09
C       3.51      14.36      11.35
C       2.32      24.13       9.29
C       3.28      15.75      11.40
C       3.03      22.00      10.40
C       3.13      20.62      10.44
C       2.44      22.64       9.30
C       2.68      19.86       9.34
C       2.12      20.51       8.22
C       1.98      21.89       8.20
C       3.60      15.90       8.97
C       3.79      14.53       8.92
C       3.33      16.51      10.20
S       1.60      19.49       6.84
S       3.77      13.41      12.88
S       2.79      16.76      12.83
N       2.74      18.46       9.27
N       3.21      17.90      10.31
O       2.77      18.92       6.23
O       0.46      18.69       7.22
O       1.06      20.62       5.81
O       4.70      14.18      13.65
O       2.52      12.95      13.44
O       4.57      12.13      12.37
O       3.95      17.43      13.35
O       1.60      17.46      12.43
O       2.35      15.71      13.95
O       4.74      11.84       9.15
O       3.03      24.75      10.15
O       2.75      11.62      10.24
O       1.51      24.65       8.45
