48

C       2.89       3.50       6.59
C       2.09       4.57       7.01
H       3.67      -6.01       8.79
C       2.09       5.86       6.26
O       3.46      -7.51       6.89
H       0.50      -2.26      15.28
H       3.54      -3.82       9.97
O       0.72      -1.36      17.54
O       2.04      -6.86       5.29
H       0.64      -2.18      12.80
H       1.05      -2.29       6.79
O       2.14       0.35      17.77
O       1.02       6.56       6.28
H       3.12       1.33      13.07
H       1.20      -4.49       5.63
O       3.15       6.20       5.65
H       2.97       1.23      15.55
H       2.09      -2.53      11.11
H       2.27      -0.38       7.40
H       1.91       1.76      11.11
H       0.66       3.09       9.73
H       3.52       1.47       6.93
H       0.63       5.22       8.46
H       3.54       3.64       5.72
C       2.64      -6.66       6.42
C       1.54      -0.54      17.03
C       2.45      -5.38       7.14
C       1.72      -0.52      15.56
C       3.09      -5.19       8.37
C       1.08      -1.49      14.78
C       3.01      -3.96       9.02
C       1.17      -1.44      13.39
C       2.29      -2.89       8.46
C       1.89      -0.41      12.75
C       1.65      -3.10       7.22
C       2.52       0.56      13.54
C       1.73      -4.32       6.57
C       2.45       0.50      14.93
C       2.19      -1.60       9.17
C       1.99      -0.39      11.28
C       2.09      -1.59      10.57
C       2.19      -0.38       8.48
C       1.99       0.82      10.57
C       2.09       0.84       9.17
C       2.09       2.12       8.43
C       1.31       3.20       8.86
C       2.87       2.29       7.27
C       1.29       4.40       8.15
