22

H       4.88       3.57       2.50
H       0.98       0.09       5.74
H       0.13       4.11       6.50
C       3.17       4.88       6.69
C       2.19       3.14       5.18
C       3.17       4.10       5.42
C       4.10       4.24       4.38
C       4.09       3.43       3.23
C       3.11       2.46       3.04
C       2.13       2.35       4.04
C       0.92       1.57       4.52
C       0.96       2.52       5.81
C       3.13       1.59       1.83
O       2.03       5.08       7.22
O       4.29       5.22       7.15
O       4.27       1.30       1.34
O       1.99       1.22       1.38
O       1.08       0.22       4.78
O      -0.14       3.28       6.06
F       1.27       1.73       6.96
F       5.04       5.20       4.44
F      -0.22       1.74       3.72
