48

N      -1.51       0.17      27.79
N      -0.65      -0.96      35.99
O      -5.43      -1.09      40.25
H       1.30      -1.57      34.73
O      -3.90      -0.05      41.49
H      -0.61      -0.42      31.90
O      -1.39       0.28      40.49
H       0.50      -0.98      28.43
O       3.09       1.02      23.41
H      -2.50       0.30      27.61
O       1.52       0.15      22.10
H      -2.20      -0.33      25.32
O      -0.94      -0.27      23.10
H       2.52       1.09      25.76
H       1.11       0.95      27.79
H       1.78      -2.70      29.12
H       2.92      -3.82      31.02
H       2.25      -3.31      33.36
H       0.27      -0.61      36.26
H      -0.09       0.02      38.33
H      -4.74      -1.62      38.02
H      -3.24      -1.83      36.03
C      -0.75      -1.38      34.68
C       0.78      -1.84      32.76
C       0.14      -1.18      31.71
C       0.49      -1.51      30.40
C      -1.30      -0.33      29.08
C      -0.64       0.25      26.70
C      -1.16      -0.02      25.43
C      -0.38       0.05      24.27
C       1.00       0.43      24.40
C       1.49       0.74      25.69
C       0.71       0.65      26.83
C       1.92       0.55      23.26
C       1.49      -2.47      30.15
C       2.13      -3.10      31.21
C       1.76      -2.80      32.52
C      -1.58      -0.88      37.03
C      -1.12      -0.32      38.23
C      -1.94      -0.21      39.37
C      -3.30      -0.67      39.27
C      -3.72      -1.24      38.06
C      -2.90      -1.37      36.95
C      -4.26      -0.61      40.37
S      -2.16      -1.69      33.85
S      -2.56      -0.27      30.16
N       0.49      -1.51      34.11
N      -0.07      -0.88      29.27
