37

C      15.49       9.99      10.63
C      16.19      10.91       9.81
C      16.47      10.48       8.51
C      16.11       9.23       7.99
C      15.48       8.29       8.85
C      15.17       8.71      10.15
C      15.49       8.32       5.71
C      15.78       8.17       4.35
C      17.86       9.35       4.66
C      17.60       9.46       6.02
C      16.40       8.97       6.57
C      16.96       8.70       3.82
H      14.54       7.96       6.10
H      15.07       7.66       3.69
H      16.94      11.18       7.83
C      17.34       8.54       2.39
H      18.78       9.74       4.24
H      14.65       8.05      10.84
H      18.34       9.92       6.68
C      16.59      12.30      10.25
C      17.21      13.19       9.18
C      14.81       5.97       9.37
N      15.17       7.01       8.42
O      14.13       9.50      12.48
O      15.34      11.41      12.56
H      18.16      12.78       8.79
H      16.54      13.34       8.32
H      17.44      14.18       9.60
H      15.71      12.80      10.68
H      17.29      12.21      11.10
H      15.67       6.71       7.60
H      14.70       5.03       8.82
H      13.85       6.20       9.86
H      15.57       5.84      10.16
O      18.23       9.31       1.95
O      16.79       7.58       1.72
C      14.96      10.31      11.98
