27

C      12.26       6.89       7.28
H      10.60       7.88       5.91
C      13.63       8.84       5.99
H      11.95      10.04       7.17
C      11.64       7.88       6.24
C      12.92       6.40       1.43
C      12.39       9.07       6.92
H      14.19       9.60       5.43
C      12.90       7.03       2.72
H      15.29       7.86       7.37
C      12.86       7.36       3.89
C      14.11       5.34       6.03
O      14.06       6.16       0.91
O      12.03       9.27      12.56
O      14.29       9.42      12.33
H      14.35       4.80       6.95
H      13.42       4.73       5.43
H      15.03       5.46       5.44
O      11.78       6.08       0.93
H      11.71       6.11       7.81
C      13.04       8.33       9.39
C      13.12       9.09      11.92
C      13.05       8.56      10.59
C      13.51       6.66       6.36
C      12.88       7.65       5.28
C      14.25       7.86       7.03
C      13.01       8.09       7.99
