36

N       1.98       3.54      11.60
N      -2.30       2.17      17.96
Cl      -1.13       0.62      25.80
H      -4.32       0.04      21.87
H      -3.40      -2.31      22.56
H      -2.92       1.10      15.74
H      -1.79       1.41      13.55
H      -0.28       1.11      22.95
H      -0.56       4.26      17.44
H      -0.16       2.54      20.91
H       0.56       4.60      15.26
H      -0.54       1.55      11.59
H       1.95       4.57      13.44
C       1.46       3.84      12.81
C       0.32       3.06      13.04
C      -2.97      -1.87      23.45
C      -2.37      -0.60      23.58
C      -0.49       2.99      14.25
C      -1.94      -0.60      24.92
C      -0.20       3.83      15.36
C      -0.83       3.65      16.58
C      -1.78       2.62      16.73
C      -2.16       1.87      15.61
C       0.21       2.29      11.86
C      -1.52       2.05      14.39
C      -3.30       1.35      20.51
C      -3.38       0.56      21.65
C      -2.10       2.02      20.19
C      -2.28       0.40      22.52
C      -1.14       1.18      22.28
C      -1.07       1.98      21.15
Br      -4.90       1.55      19.49
N      -1.73       2.65      18.99
N      -2.92      -2.56      24.61
N      -2.28      -1.76      25.52
N       1.20       2.58      11.00
