30

H       6.51       7.76      14.86
H       7.46       6.28      17.20
H       3.16       6.09      14.86
H       7.46       6.28      14.86
H       3.98       7.66      14.86
H       6.51       7.76      17.20
H       3.98       7.66      17.20
H       6.28       4.02      17.20
H       4.52       3.94      17.20
H       6.28       4.02      14.86
H       4.52       3.94      14.86
H       3.16       6.09      17.20
C       5.32       5.95      21.45
C       5.32       5.95      10.61
C       6.54       6.74      16.81
C       4.03       6.63      16.81
C       6.54       6.74      15.26
C       5.32       5.94      12.06
C       4.03       6.63      15.26
C       5.32       5.94      20.01
C       5.32       5.96      17.34
C       5.32       5.96      14.72
C       5.38       4.50      15.26
C       5.38       4.50      16.81
C       5.32       5.95      13.27
C       5.32       5.95      18.79
O       6.46       5.95      22.03
O       4.18       5.95      22.03
O       6.46       5.95      10.04
O       4.18       5.95      10.04
