46

O       3.15      -9.18      15.91
O       4.22     -10.50      14.51
O       3.15      -5.04       6.75
O       4.22      -5.59       8.59
O       3.15     -15.04       7.74
O       4.22     -13.17       7.30
H       0.99      -6.13      12.83
H       0.92      -7.30      10.67
H       3.26     -10.51      12.37
H       3.26      -7.43       9.68
H       0.99      -9.23       5.65
H       0.92     -10.51       7.75
H       3.26     -11.31       8.35
H       0.99     -13.89      11.92
H       0.92     -11.44      11.99
C       2.13     -15.51      10.08
C       2.13      -6.92      15.15
C       2.13      -6.82       5.17
C       1.48      -7.10      12.73
C       1.43      -7.77      11.51
C       2.05      -9.03      11.35
C       2.75      -9.56      12.44
C       2.76      -8.90      13.65
C       2.13      -7.66      13.84
C       2.75      -7.85       8.82
C       2.76      -7.13       7.63
C       2.13      -7.58       6.47
C       1.48      -8.83       6.54
C       1.43      -9.55       7.73
C       2.05      -9.06       8.90
C       2.75     -11.84       9.15
C       2.76     -13.23       9.12
C       2.13     -14.01      10.09
C       1.48     -13.32      11.13
C       1.43     -11.93      11.16
C       2.05     -11.17      10.15
N       1.98      -9.75      10.13
N       3.43      -9.57      14.77
N       3.43      -5.82       7.66
N       3.43     -13.86       7.97
O       1.12     -16.09       9.59
O       3.11     -16.08      10.66
O       3.11      -6.13      15.35
O       1.12      -7.06      15.89
O       3.11      -7.05       4.39
O       1.12      -6.11       4.92
