24

H       4.90       3.52       9.33
N       5.79       2.93       6.13
H      -0.39       2.91       9.06
N      -1.26       3.49      12.26
H       6.89       3.37       7.82
H      -2.37       3.06      10.57
H       2.44       2.64       5.87
H       2.09       3.75      12.50
H       1.35       3.00       7.96
H       3.18       3.42      10.42
H       4.54       2.51       4.53
H      -0.01       3.89      13.86
C       4.77       3.29       8.27
C      -0.25       3.14      10.11
C       5.88       3.21       7.45
C      -1.35       3.22      10.94
C       3.41       2.79       6.35
C       1.12       3.62      12.03
C       2.28       3.12       8.52
C       2.24       3.30       9.86
C       3.49       3.07       7.73
C       1.04       3.34      10.65
C       4.57       2.73       5.60
C      -0.04       3.68      12.79
