36

H      16.54      14.63       8.10
H       9.52      16.30       8.19
H       8.74      11.62       8.23
H      17.36      19.28       8.29
H      17.54      16.78       8.28
H       8.53      14.11       8.12
H      14.60      13.18       8.05
H      11.44      17.77       8.24
C      15.20      20.78       8.10
C      12.03      12.46       8.53
C      14.10      17.07       8.07
C      11.97      13.89       8.33
C      15.40      16.48       8.15
C      10.66      14.46       8.23
C      12.94      16.19       8.15
C      13.12      14.77       8.21
C      14.44      14.24       8.12
C      11.61      16.70       8.21
C      15.53      15.06       8.13
C      10.95      10.16       8.45
C      10.52      15.87       8.20
C      15.23      19.27       8.07
C      10.88      11.67       8.44
C      16.57      17.27       8.22
C      13.23      11.81       8.98
C      12.87      19.19       7.51
C       9.51      13.64       8.21
C      16.48      18.65       8.21
C       9.62      12.27       8.27
C      14.06      18.50       7.93
N      14.18      11.31       9.44
N      11.91      19.70       7.08
O      16.29      21.39       7.84
O       9.95       9.53       8.91
O      14.10      21.31       8.43
O      12.00       9.66       7.95
