26

H       1.22       2.78      17.20
H       4.96      -3.17      18.62
C       3.13       2.99      15.40
C       3.63      -2.92      20.89
C       3.09       1.95      16.48
C       3.60      -1.94      19.76
C       4.47      -1.38      17.58
C       1.86       1.13      18.40
C       4.39      -2.24      18.64
C       1.98       2.02      17.36
C       2.82      -0.78      19.75
C       4.00       0.91      16.62
C       2.77       0.06      18.59
C       3.75      -0.15      17.56
Br       5.65       0.97      15.70
Br       2.06      -0.18      21.38
N       5.17      -1.92      16.39
N       0.58       1.24      19.14
O       4.77      -3.41      21.18
O       2.01       3.22      14.84
O       4.23       3.54      15.12
O       2.52      -3.23      21.44
O       4.55      -1.86      15.32
O       6.26      -2.46      16.57
O      -0.08       0.20      19.25
O       0.22       2.37      19.50
