26

N       1.61      11.03      18.53
H       3.72      10.90      15.02
H       4.45      19.74      12.47
N       2.41      10.17      17.78
N       5.70      17.74      11.67
N       6.35      16.52      11.84
H       4.23      15.38      17.84
H       6.00      14.88      16.11
Cl       0.79      13.55      18.58
C       1.64      12.24      17.93
C       2.91      13.30      15.90
Cl       2.84      12.91      14.20
C       3.78      16.12      14.41
Cl       2.09      16.23      14.07
C       3.53      14.44      16.33
Cl       6.15      14.28      13.21
C       4.22      15.43      15.50
O       3.70      10.31      15.81
O       3.96      18.93      12.76
C       2.87      10.89      16.73
C       4.73      17.84      12.62
C       2.45      12.23      16.78
O       3.70      14.57      17.69
O       5.51      15.71      15.95
C       4.69      16.65      13.40
C       5.73      15.89      12.83
