20

N      18.75      14.49      19.01
N      23.85      11.82      21.11
C      21.26      16.44      18.18
C      21.31      10.15      22.34
O      20.20      17.14      18.14
O      22.40      16.74      17.68
O      20.19       9.53      22.33
O      22.33       9.91      23.05
C      20.16      14.37      19.35
C      22.42      12.11      20.99
C      21.22      15.16      18.92
C      21.35      11.34      21.45
C      21.99      13.25      20.28
C      20.59      13.29      20.15
O      17.97      13.93      19.81
O      18.42      15.06      17.96
O      24.59      12.83      21.06
O      24.23      10.65      21.20
S      22.75      14.56      19.48
S      19.82      11.99      20.96
