22

C       3.78      22.68      20.36
C       4.27      22.95      26.20
C       3.41      23.94      22.54
C       4.65      21.70      24.01
C       3.60      22.57      21.88
C       4.45      23.06      24.68
C       4.80      21.84      22.50
H       4.28      24.57      22.30
C       3.25      23.80      24.06
H       3.78      21.07      24.25
H       2.52      24.44      22.11
H       5.53      21.20      24.44
H       2.70      21.96      22.05
H       5.36      23.67      24.51
H       5.72      22.40      22.26
H       2.34      23.23      24.30
H       4.91      20.84      22.03
H       3.14      24.79      24.52
O       3.05      21.92      19.65
O       5.00      23.72      26.91
O       4.66      23.50      19.92
O       3.40      22.13      26.63
