36

O      13.82      11.32       1.02
O      13.82      10.31      -1.02
O      29.43      10.31       1.02
O      29.43      11.32      -1.02
C      14.38      10.81       0.00
C      28.86      10.81       0.00
C      15.88      10.81       0.00
C      16.61       9.76      -0.58
C      18.00       9.77      -0.58
C      16.61      11.86       0.58
F      15.99       8.70      -1.12
C      18.00      11.86       0.58
F      20.27      10.80       2.38
F      22.97      10.82       2.38
C      20.93      10.81       1.20
C      20.93      10.81      -1.20
F      22.97      10.80      -2.38
C      26.64      11.86      -0.58
F      20.27      10.82      -2.38
F      24.59       8.72       1.12
C      27.37      10.81       0.00
F      27.26       8.70       1.13
C      24.52      10.81      -0.00
C      25.24       9.77       0.58
C      25.24      11.86      -0.58
C      26.64       9.76       0.58
F      27.26      12.92      -1.12
F      24.59      12.90      -1.12
C      23.04      10.81      -0.00
C      22.32      10.81      -1.20
C      22.32      10.81       1.20
F      15.99      12.92       1.12
F      18.65      12.90       1.12
C      18.73      10.81      -0.00
F      18.65       8.72      -1.12
C      20.20      10.81      -0.00
