14

H       8.13       3.22       8.13
N      10.82       5.49       5.92
N       7.97       5.56       6.00
H      10.74       4.66       8.98
H      10.64       3.14       8.04
H      10.63       6.57       4.14
H       8.11       6.61       4.19
H       8.20       4.75       9.06
C      10.10       4.94       6.89
C      10.08       6.10       4.95
C       8.68       6.13       4.99
C       8.71       4.97       6.93
C       8.63       4.20       8.22
C      10.22       4.15       8.17
