18

O      14.33      18.42      26.13
C      11.13      17.48      27.66
C      10.09      20.52      29.33
C      12.30      18.12      27.23
C       8.92      19.89      29.77
C      10.89      19.64      28.56
C      10.33      18.37      28.43
H       9.96      15.98      27.75
H      11.27      22.02      29.24
O      13.34      16.35      26.09
O       6.89      19.59      30.86
O       7.90      21.65      30.95
O      10.83      16.19      27.37
O      10.40      21.81      29.62
C      13.40      17.58      26.42
S      12.41      19.78      27.75
S       8.81      18.23      29.24
C       7.83      20.42      30.58
