28

C      -1.34      12.28       1.63
C      -1.83      11.97       2.91
C      -1.02      12.08       4.06
C       0.35      12.49       3.88
C       0.81      12.80       2.58
C      -0.00      12.72       1.47
C       1.29      12.63       5.00
C      -6.34      11.78      -5.03
H      -6.90      11.15      -2.55
H      -5.43      11.19      -0.53
H      -2.19      12.64      -3.00
H      -2.86      11.65       3.04
H       1.85      13.12       2.48
H       0.37      12.98       0.48
O       2.49      13.04       4.81
O       0.89      12.33       6.19
O      -1.57      11.80       5.25
O      -0.67      11.36      -4.87
O      -5.94      12.18      -6.20
O      -3.47      12.63      -5.21
C      -4.03      12.27      -4.04
C      -5.40      11.86      -3.90
C      -5.87      11.48      -2.62
C      -5.06      11.50      -1.51
C      -3.72      11.95      -1.63
C      -3.23      12.31      -2.89
C      -2.89      12.04      -0.49
C      -2.18      12.15       0.50
