44

N       2.36       4.33      11.53
N      -1.62       3.99      18.03
N      -1.05       4.32      19.10
H      -2.31      -1.34      22.10
N      -0.67       1.47      18.45
N      -3.47       4.44      15.92
N      -2.38       4.67      13.25
H      -0.30       2.57      11.96
N      -0.23       1.21      25.41
O       0.32       1.97      17.89
O      -1.34       0.54      18.01
O      -3.91       4.92      16.98
O      -4.15       3.85      15.06
O      -2.39       3.72      12.46
O      -3.01       5.72      13.13
H       2.30       5.87      13.00
O       0.24       2.26      24.97
O      -0.20       0.90      26.64
H      -0.88      -0.04      20.53
H      -1.47       3.07      23.48
H       0.83       4.81      17.52
H      -1.39       4.77      21.68
H       1.79       4.89      15.23
C      -1.84      -0.93      22.99
C      -0.86       0.28      24.53
C      -1.25       0.33      23.16
C       0.49       3.30      12.03
C       1.82       4.99      12.57
C       0.61       4.38      12.95
C      -0.08       4.61      14.21
C       0.71       4.82      15.36
C       0.18       4.80      16.64
C      -1.19       4.57      16.84
C      -2.03       4.56      15.70
C      -1.48       4.58      14.42
C      -1.00       1.96      19.80
C      -1.03       1.00      20.80
C      -1.13       3.34      20.10
C      -1.18       1.38      22.15
C      -1.32       2.75      22.45
C      -1.27       3.71      21.44
N      -1.83      -1.64      24.16
N      -1.20      -0.90      25.08
N       1.55       3.27      11.21
