36

C       0.37       1.92       0.86
C       4.66      -3.57      -0.24
C       1.67       1.39      -2.83
C       4.82      -1.49       3.12
O       2.25      -3.37      -5.02
O       4.48       3.48       4.99
O       4.50      -3.56      -4.81
O       2.20       3.52       4.92
O       1.61       2.12       0.15
O       5.08      -2.24       0.12
H       0.55       1.66       1.91
H      -0.22       1.13       0.37
H      -0.17       2.88       0.81
O       5.13      -0.47       2.16
O       1.46       0.26      -1.94
H       4.62      -3.71      -1.32
H       3.68      -3.79       0.20
H       5.42      -4.23       0.20
H       2.62       1.27      -3.37
H       1.65       2.33      -2.27
H       0.84       1.36      -3.54
H       4.77      -2.48       2.64
H       3.87      -1.27       3.63
H       5.63      -1.48       3.85
C       3.36      -3.16      -4.43
C       3.35       3.19       4.47
C       2.38       0.12      -0.94
C       4.21      -0.32       1.15
C       3.27      -0.98      -0.99
C       3.35       0.80       1.18
C       4.17      -1.22       0.08
C       2.43       1.02       0.13
C       3.29      -1.76      -2.17
C       3.37       1.66       2.30
C       3.37       2.39       3.28
C       3.31      -2.38      -3.22
