26

O       5.41       4.39       7.70
O       8.42       1.49       8.74
O       5.01      -4.70       7.50
O       3.16       4.28       7.45
H       3.94      -2.58       7.10
O       7.26      -4.58       7.75
H       6.48       2.27       8.10
H       2.37       1.98       6.91
H       8.05      -2.28       8.29
O       2.00      -1.80       6.47
H       1.34       0.12       6.45
H       9.08      -0.43       8.75
C       4.32       3.76       7.56
C       7.11      -1.78       8.05
C       5.63       1.66       7.83
C       4.79      -1.96       7.37
C       5.77       0.25       7.79
C       4.65      -0.56       7.41
C       6.10      -4.07       7.64
C       2.17      -0.59       6.64
C       8.24       0.29       8.56
C       6.00      -2.57       7.68
C       4.42       2.27       7.52
C       3.41       0.09       7.08
C       7.01      -0.40       8.12
C       3.31       1.48       7.15
