54

O       2.06       7.66      18.13
H       1.90       5.84      21.13
O       3.14       8.39      19.99
H      -1.77       3.92      25.73
H      -1.91       9.01      21.47
H       2.03       0.74      26.04
O      -1.76       2.24      29.12
O      -3.18       2.59      27.39
H       3.84       8.75      19.38
O      -1.98       6.99      23.20
O       2.24       2.43      24.09
H      -3.82       2.56      28.13
H      -3.19       7.80      24.60
H      -2.20       9.01      23.73
H      -1.12       6.91      25.70
H      -0.14       8.09      24.84
H      -1.34       9.98      26.02
H      -0.60       8.86      27.19
H      -2.35       8.79      26.89
H       2.74       2.59      22.12
H       0.99       2.45      22.39
H       3.07       0.22      22.83
H       1.34       0.07      23.19
H       0.79       0.43      20.75
H       1.90      -0.94      20.94
H       2.51       0.63      20.38
C       0.24       0.31      27.95
C      -0.25       9.58      19.40
C       1.06       6.52      21.18
C      -0.94       3.22      25.80
C       0.98       7.60      20.31
C      -0.90       2.30      26.85
C      -0.12       8.48      20.39
C       0.18       1.40      26.93
C      -1.08       8.31      21.39
C       1.20       1.45      25.98
C      -1.00       7.23      22.27
C       1.17       2.38      24.94
C       0.06       6.30      22.15
C       0.09       3.29      24.84
C       0.11       5.21      23.04
C       0.09       4.30      23.86
C       2.10       7.88      19.33
C      -1.95       2.35      27.91
C      -2.19       8.01      24.20
C      -1.13       7.93      25.29
C      -1.37       8.95      26.41
C       1.98       2.06      22.70
C       2.07       0.56      22.52
C       1.80       0.15      21.07
O       1.39      -0.01      28.39
O      -1.43       9.90      19.00
O      -0.86      -0.24      28.26
O       0.83      10.11      19.00
