32

H       1.14      13.40       9.10
H       8.37      13.04      19.49
H       2.41      14.69      10.80
H       7.11      11.75      17.79
H       3.64      10.93      12.53
H       5.87      15.51      16.06
H       2.34       9.79      10.70
H       7.17      16.66      17.89
H       4.38      15.52      13.75
H       5.13      10.92      14.84
H       2.74      15.47      13.02
H       6.77      10.97      15.56
H       4.16      15.53      11.97
H       5.36      10.91      16.62
C       1.71      12.89       9.88
C       7.81      13.55      18.71
C       2.41      13.60      10.85
C       7.11      12.84      17.74
C       3.11      12.91      11.84
C       6.40      13.53      16.75
C       3.10      11.50      11.78
C       6.41      14.94      16.81
C       2.38      10.87      10.78
C       7.13      15.57      17.81
C       3.83      13.63      12.91
C       5.69      12.81      15.67
C       3.78      15.13      12.92
C       5.73      11.31      15.67
N       1.68      11.55       9.85
N       7.84      14.89      18.74
N       4.44      12.88      13.79
N       5.08      13.56      14.80
