28

C       7.32      14.55       6.54
C       6.04      14.87       5.83
H       9.82      15.08      10.39
C       5.02      15.65       6.40
H       9.48      15.13       7.92
C       3.92      16.03       5.63
H       5.12      16.01       7.42
C       3.84      15.66       4.29
H       3.13      16.66       6.06
C       2.72      16.17       3.43
O       9.24      14.34      12.64
H       4.76      14.58       2.67
C       4.84      14.86       3.72
H       6.73      13.86       4.06
O       7.04      14.69      13.06
C       5.93      14.46       4.49
O       8.33      14.28       5.88
H       5.37      13.98       8.47
C       6.34      14.26       8.88
C       6.52      14.25      10.26
H       5.70      13.99      10.92
O       1.69      16.67       4.01
O       2.82      16.11       2.17
C       8.03      14.52      12.28
C       7.78      14.54      10.81
C       8.85      14.86       9.95
C       8.66      14.88       8.58
C       7.40      14.58       8.03
