16

C      15.31       9.94      28.36
C      16.71      10.11      28.39
C      16.07      11.95      27.13
Br      18.96      11.71      27.58
O      17.15      13.81      26.17
O      14.90      13.53      25.89
O      17.08       6.44      30.78
C      17.14      11.26      27.69
O      14.79       6.44      30.75
S      17.50       8.88      29.28
C      16.05      13.19      26.33
C      15.94       6.92      30.44
S      14.54      11.18      27.45
C      14.89       8.80      29.08
H      13.86       8.46      29.20
C      15.97       8.14      29.63
