26

H       5.91       8.81      10.80
H       0.85      13.52       8.77
H       0.82      11.88      10.63
H       5.96      10.46       8.94
H       0.97       8.93      11.72
H       5.78      13.41       7.82
C       3.93       8.39      12.59
C       2.82      13.93       6.97
C       3.92       9.31      11.42
C       2.85      13.01       8.14
C       1.69      11.95       9.98
C       5.08      10.38       9.59
C       1.71      12.87       8.96
C       5.06       9.46      10.61
C       3.98      12.24       8.36
C       2.79      10.09      11.21
C       3.97      11.24       9.37
C       2.80      11.10      10.20
C       1.55       9.83      12.02
C       5.22      12.49       7.54
O       5.06       8.06      13.06
O       1.69      14.26       6.51
O       2.79       8.05      13.04
O       3.96      14.26       6.48
O       1.13      10.57      12.91
O       5.64      11.73       6.67
