30

H      15.05       4.89      21.21
H      12.61       2.12      21.04
H      14.30       2.53      20.72
H      11.45       5.63      21.67
H      10.81       4.05      21.20
C      13.98       3.02      27.50
Cl      15.50       2.48      23.08
Cl      12.92       1.21      23.48
Cl      10.87       5.21      24.28
Cl      13.85       6.89      20.99
O      11.13       5.18      16.78
H      15.00       5.18      23.55
H      13.46       6.05      23.49
H      11.23       3.12      23.32
O      15.16       2.63      27.69
O      13.00       2.95      28.34
O      13.33       5.05      16.20
C      14.06       5.20      21.58
C      13.42       2.81      21.32
C      13.73       2.66      22.82
C      13.66       3.52      26.19
C      12.98       4.26      21.00
C      14.00       5.17      23.11
C      13.22       3.92      23.60
C      11.73       4.08      23.18
C      11.64       4.55      21.72
C      12.34       4.93      17.02
C      13.41       3.73      25.02
C      12.83       4.41      19.56
C      12.65       4.53      18.37
