23

C       8.82      19.45       4.63
H       9.79      19.26       4.16
C       8.11      20.61       4.38
H       8.52      21.35       3.69
H       5.42      19.86       6.32
C       6.87      20.83       5.00
C       6.39      19.79       5.83
H       6.78      17.83       6.64
C       7.16      18.65       6.02
H       7.87      23.30       4.46
C       6.12      22.09       4.85
H       6.63      25.45       4.46
H       2.95      23.34       5.15
C       6.79      23.30       4.61
C       6.10      24.51       4.61
H       4.18      21.18       5.20
C       4.72      24.53       4.83
N       8.37      18.48       5.45
C       4.03      23.32       5.00
C       4.72      22.11       5.03
O       4.69      26.91       4.99
C       3.99      25.82       4.97
O       2.73      25.86       5.10
