18

C      16.25      13.31      11.21
C      15.47      12.27      10.66
N       9.84      12.52      12.72
N       9.88      11.39      11.98
H      13.68      11.15      10.21
C      10.95      13.24      12.46
H      11.14      14.19      12.94
N      17.54      12.95      11.28
H      11.24      10.56      10.58
C      11.75      12.55      11.54
N      17.65      11.69      10.75
H      15.92      14.28      11.59
C      14.04      12.10      10.61
C      13.11      12.88      11.19
F      13.51      14.09      11.73
H      16.28      10.30       9.94
C      11.02      11.38      11.26
C      16.43      11.28      10.37
