34

N       9.98       9.96       1.03
N       9.25      12.65       0.85
H       5.71       4.47       3.47
H       8.24       5.85       0.23
H       4.30      13.20       2.04
O      10.00       8.98       0.27
O      10.97      10.62       1.37
H       8.05      14.73       0.50
O       9.75      13.54       1.55
O       9.39      12.53      -0.37
H       8.80       7.61       1.50
H       5.21       6.98       3.81
H       4.94       9.41       4.08
H       5.41      11.63       3.21
C       6.33       4.60       2.59
C       7.64       5.28       0.94
C       7.01       5.74       2.12
C       5.11      13.75       1.58
C       7.03      14.50       0.78
C       6.50      13.46       1.55
C       6.99       7.13       2.56
C       7.10      12.20       2.01
C       8.68      10.37       1.59
C       8.34      11.71       1.53
C       6.34      11.30       2.75
C       6.65       9.93       2.85
C       7.80       9.40       2.17
C       7.96       8.01       2.07
C       5.94       7.66       3.36
C       5.78       9.01       3.51
N       6.56       3.58       1.74
N       7.37       4.00       0.70
N       4.85      14.86       0.87
N       6.02      15.32       0.35
