20

C       2.35       7.48       0.30
H      -5.80       7.77       1.73
C      -5.36       7.23      -0.41
H      -6.17       6.82      -2.48
N      -7.44       7.57       0.40
H       4.17       7.89      -1.94
H       4.37       8.37       2.36
N      -7.55       7.26      -0.94
C      -6.14       7.55       0.72
C       4.43       8.13      -0.92
C       4.53       8.37       1.28
N       5.59       8.72      -0.61
N       5.66       8.87       0.74
C       3.68       7.90       0.25
C      -6.32       7.06      -1.43
C      -3.97       7.14      -0.43
C      -2.74       7.11      -0.31
C      -1.41       7.11      -0.16
C      -0.19       7.15       0.02
C       1.14       7.27       0.18
