22

C      18.32      12.79      10.14
C      18.54      14.27      10.02
C      18.52      15.06      11.16
C      18.75      16.45      11.08
H      18.33      14.59      12.13
H      19.22      16.66       7.67
H      18.78      14.22       7.87
H      18.49      16.84      13.20
O      18.22      12.32      11.32
O      18.27      12.12       9.06
H      19.49      18.89       8.76
H      18.84      19.30      12.99
O      19.17      21.41      11.79
O      19.61      21.18       9.58
C      19.04      16.21       8.65
C      18.79      14.86       8.75
C      18.70      17.29      12.23
C      18.90      18.64      12.12
C      19.18      19.23      10.86
C      19.27      18.43       9.73
C      19.34      20.71      10.74
C      19.03      17.04       9.80
