69

H       1.57       2.11       2.39
H       0.37       2.24      -1.74
H      -0.45      -1.25       0.63
H      -0.09      -2.87       5.05
H      -0.74      -2.03       2.66
H       0.93      -3.23       6.96
H       1.84      -3.40       9.27
H       3.97       0.28       8.72
H       2.99       0.53       6.45
H       3.68       6.18       1.07
H       2.78       3.92       2.02
H       4.05       8.01      -0.15
H       4.76       9.80      -1.72
H       2.47       8.00      -4.85
H       1.81       6.15      -3.34
H      -2.52      -0.07      -4.73
H      -1.19       1.53      -3.16
H      -3.69      -1.75      -5.56
H      -4.86      -3.73      -6.51
H      -3.36      -6.18      -3.32
H      -2.21      -4.22      -2.34
C       0.59       0.34       1.65
C       1.11       1.64       1.53
C       1.04       2.33       0.31
C       0.41       1.72      -0.78
C      -0.16       0.44      -0.67
C      -0.05      -0.25       0.54
C       0.69      -0.40       2.90
C       1.33      -1.22       5.19
C       0.37      -2.01       4.57
C       0.01      -1.55       3.29
C       1.90      -1.35       6.52
C       1.60      -2.46       7.34
C       2.11      -2.56       8.62
C       2.98      -1.58       9.12
C       3.30      -0.48       8.32
C       2.76      -0.36       7.05
C       3.57      -1.70      10.48
C       1.64       3.66       0.18
C       2.52       5.83      -0.74
C       2.98       5.54       0.54
C       2.49       4.33       1.05
C       2.88       6.93      -1.63
C       3.70       7.99      -1.18
C       4.10       9.00      -2.05
C       3.67       9.01      -3.38
C       2.82       7.98      -3.83
C       2.45       6.95      -2.97
C       4.12      10.06      -4.33
C      -0.88      -0.15      -1.80
C      -2.18      -1.68      -3.30
C      -2.07      -0.39      -3.79
C      -1.34       0.47      -2.95
C      -2.86      -2.84      -3.87
C      -3.62      -2.72      -5.06
C      -4.27      -3.82      -5.60
C      -4.17      -5.07      -4.98
C      -3.43      -5.20      -3.80
C      -2.79      -4.10      -3.25
C      -4.88      -6.24      -5.55
S       1.78       0.09       4.15
S       1.44       4.58      -1.27
S      -1.35      -1.81      -1.79
O       4.61      -1.03      10.76
O       3.05      -2.53      11.32
O       3.57      10.11      -5.51
O       5.04      10.87      -4.01
O      -4.54      -7.44      -5.17
O      -5.83      -6.07      -6.38
