20

H       6.64       6.22       1.47
H       2.38       5.67       1.13
H       6.83       6.34      -1.01
H       2.56       5.80      -1.35
C       4.47       5.24       5.49
C       5.75       6.13       0.85
C       4.78       5.89      -5.42
C       5.86       6.19      -0.54
C       4.71       6.05      -1.35
C       3.45       5.89      -0.72
C       3.35       5.82       0.66
C       4.50       5.91       1.46
C       4.80       6.03      -2.76
C       4.42       5.74       2.87
C       4.40       5.54       4.07
C       4.83       5.97      -3.97
O       5.63       5.27       6.00
O       3.37       4.99       6.08
O       5.90       5.82      -6.03
O       3.62       5.90      -5.94
