16

C      15.37       3.48      18.47
O      14.50       4.26      17.95
O      15.48       2.22      18.27
C      19.18       5.93      22.06
H      15.29       5.98      19.47
H      19.29       3.44      21.01
H      16.92       7.04      21.06
H      17.62       2.36      19.48
O      20.26       5.29      22.26
O      18.85       7.05      22.58
C      16.36       4.11      19.39
C      18.20       5.30      21.12
C      16.16       5.43      19.83
C      18.40       3.98      20.68
C      17.07       6.02      20.70
C      17.48       3.39      19.83
