40

C      13.52      10.25      18.48
O      17.03       6.06      21.90
O      17.03       9.04      17.43
C      12.84       5.41      23.68
C      12.84      10.44      16.15
H      17.38       8.20      20.10
O      10.18      12.89      15.82
O      10.18       6.05      26.08
H      12.93       4.33      23.80
H      12.93      10.13      15.11
C      10.93      11.92      15.46
C      10.93       5.34      25.32
O      16.73       7.65      23.49
O      16.73      11.12      18.29
C      12.54       8.17      23.37
H      12.42      11.51      19.86
C      12.54      11.20      18.82
H      12.42       9.25      23.25
O      10.92       4.07      25.26
O      10.92      11.38      14.31
H      12.57       9.13      20.72
C      13.65       9.00      20.63
C      11.86       6.09      24.42
C      11.86      11.38      16.49
H      10.97      12.51      18.09
H      10.97       8.00      24.85
H      14.42       5.56      22.23
C      11.73      11.77      17.83
H      14.42       9.16      16.85
C      11.73       7.48      24.27
C      13.67       6.11      22.81
C      13.67       9.89      17.13
C      15.68       7.92      21.38
C      15.68       9.28      19.35
C      16.33       8.44      20.26
C      16.52       7.14      22.35
C      16.52       9.87      18.26
C      14.30       8.18      21.57
C      14.30       9.55      19.52
C      13.52       7.49      22.62
