28

H       7.23      15.34      12.15
H       9.42      16.33      12.73
C       8.07      13.57      11.20
C       8.15      14.82      11.89
C       9.37      15.37      12.20
C      10.58      14.71      11.84
H      11.54      15.16      12.10
C       6.84      12.97      10.88
C       5.57      13.65      11.30
C       6.78      11.76      10.16
C       5.54      11.16       9.78
H       4.62      11.65      10.09
O       5.25      14.75      10.73
O       4.85      13.16      12.23
O      10.84      10.96       8.48
O      11.24      10.40      10.59
H       4.55       9.57       8.77
H      11.47      13.01      10.89
H       8.85       9.43       8.64
H       6.67       8.45       8.05
C      10.52      10.99       9.72
C       9.25      11.68      10.12
C       8.01      11.11       9.74
C       7.93       9.91       8.97
C       6.71       9.37       8.63
C       5.51      10.00       9.04
C      10.54      13.51      11.18
C       9.30      12.89      10.84
