27

O       9.83      -1.10      14.46
O      13.40      -3.24       8.58
O      14.83      -4.05      10.16
O      12.27      -5.67       9.97
O      13.68      -6.86      11.29
O      14.34      -0.54       9.49
O      12.27      -0.08       8.89
H      11.71       0.33      11.54
H      11.11      -2.84      15.11
H      11.71      -5.19      15.46
H      12.58      -6.55      13.55
H      13.71      -7.40      10.47
C      10.80      -0.55      13.87
C      13.77      -3.43       9.77
C      11.57      -3.40      14.30
C      11.89      -4.72      14.49
C      12.41      -5.48      13.43
C      12.65      -4.90      12.20
C      12.47      -3.49      12.01
C      11.84      -2.75      13.07
C      11.55      -1.35      12.87
C      11.92      -0.73      11.70
C      12.62      -1.45      10.73
C      12.92      -2.80      10.85
C      12.86      -5.81      11.04
N      13.11      -0.65       9.60
O      11.15       0.69      14.07
