38

H       2.19       2.92       8.05
H       2.35       2.65       5.36
H      -4.67       9.18       5.32
H      -4.77       9.43       8.02
H      -0.79       6.59       8.03
H      -1.65       5.48       5.25
C       0.41       4.15       7.60
C       1.58       3.41       7.31
C       1.65       3.26       5.91
C       0.55       3.93       5.36
C      -2.89       7.94       5.72
C      -4.04       8.68       6.05
C      -4.08       8.81       7.45
C      -2.98       8.13       7.98
C      -1.06       2.33      10.68
C      -1.10       9.69      11.03
C      -1.50       9.68       2.56
C      -1.40       2.27       2.41
C      -1.73       8.62       3.50
C      -2.20       8.11       4.52
C      -2.39       8.30       9.23
C      -1.82       8.73      10.23
C      -0.61       3.22       3.14
C      -0.04       3.71       4.11
C      -0.32       3.93       8.77
C      -0.84       3.39       9.74
C      -1.33       6.53       7.09
C      -1.12       5.54       6.20
N      -0.15       4.55       6.39
N      -2.30       7.53       6.92
O      -0.01       2.07      11.38
O      -0.85      10.82      10.46
O      -0.74       9.50      12.24
O      -2.17       1.72      10.76
O      -2.56      10.02       1.93
O      -1.43       1.07       2.86
O      -2.08       2.57       1.37
O      -0.37      10.24       2.46
