24

O       7.80      13.62       7.13
O       5.50      17.03       5.61
O       9.26      14.37       4.98
O       4.61      18.47       7.11
H       3.87      16.03       7.97
O      10.66      12.62       5.25
H       5.32      16.69       8.79
H       8.36      11.86       9.14
H       5.25      13.35      11.73
H       7.12      11.74      11.26
H       4.52      14.91       9.95
H       9.73      13.08       7.73
H       8.81      11.82       6.84
C       6.03      14.29       8.55
C       7.15      13.45       8.33
C       4.94      16.28       7.84
C       7.52      12.53       9.30
C       5.05      17.33       6.75
C       9.68      13.35       5.60
C       5.78      13.36      10.77
C       6.82      12.48      10.52
C       5.37      14.26       9.77
C       9.02      12.90       6.90
O       5.68      15.10       7.50
