61

C       1.99      15.67       1.85
C       1.20      14.55       1.43
C       1.38      13.94       0.24
C      -2.87       9.64       1.56
C      -1.74      10.38       1.63
C      -1.31      11.36       0.66
C      -0.10      11.96       0.72
C      -0.63      16.08      -3.92
C      -1.01      15.33      -2.85
C      -0.26      14.22      -2.35
C      -0.48      13.65      -1.14
H       4.17       8.14      -2.80
H       1.68       7.63      -6.31
H       4.35      17.70       2.04
H       1.49      18.31       5.24
H      -5.09       7.64       1.63
H      -1.72       8.62       4.16
H      -2.80      17.88      -2.80
H       0.00      18.01      -6.10
H       2.87      10.01      -2.24
H       0.18      11.47      -2.83
H       0.84       9.70      -4.55
H       2.32      11.61      -0.61
H       2.81      15.96       1.19
H       0.39      14.21       2.09
H       0.94      16.11       3.63
N       3.39       6.63      -5.54
N       4.17       6.80      -4.43
H       2.15      14.31      -0.44
H      -1.99      11.57      -0.18
H       0.57      11.71       1.54
H      -1.04      10.20       2.46
H      -3.55       9.81       0.71
H       0.62      13.91      -2.93
H      -1.34      14.00      -0.55
H      -1.86      15.66      -2.25
H       0.23      15.74      -4.51
N       4.19      19.07       3.64
N      -3.26       7.18       4.25
N      -4.33       6.86       3.45
N       3.28      19.27       4.65
N      -1.46      19.35      -5.34
N      -2.35      19.30      -4.30
C       3.70       7.85      -3.73
C       2.57       8.39      -4.38
C       2.43       7.58      -5.52
C       3.77      18.03       2.90
C       2.57      17.51       3.43
C       2.31      18.34       4.53
C      -4.33       7.71       2.40
C      -3.24       8.60       2.49
C      -2.60       8.21       3.68
C      -2.20      18.11      -3.67
C      -1.19      17.36      -4.30
C      -0.77      18.19      -5.35
C       0.51      12.83      -0.35
C       1.74       9.49      -3.95
C       1.97      10.22      -2.83
C       1.11      11.24      -2.29
C       1.39      11.87      -1.13
C       1.78      16.39       2.98
