18

C       2.59       1.22       9.13
C       1.61      -2.51       8.77
C       1.55       2.06       8.76
C       2.22      -0.13       9.03
C       0.90      -0.31       8.57
S       3.02      -1.63       9.30
S       0.11       1.20       8.29
N      -0.66      -2.12       7.92
O       2.73       4.07       8.86
H       3.56       1.60       9.45
H      -1.47      -1.51       7.94
H      -0.84      -3.12       8.02
C       1.58       3.52       8.71
O       2.74      -4.55       8.99
C       1.63      -3.95       8.75
O       0.52      -4.55       8.50
O       0.48       4.13       8.49
C       0.53      -1.68       8.41
