50

H       3.90       7.44       0.08
H       1.73       6.48       2.56
H       2.12       4.76       2.28
H       0.93       5.23       3.51
H       3.03       4.61       4.66
H       2.63       6.26       4.93
H       8.28       4.97      -3.32
H       7.50       4.18      -4.72
H       9.01       5.12      -4.92
H       7.10       6.47      -5.75
H       6.83       6.58      -0.09
H       7.85       7.21      -4.32
H       1.83       4.87      -4.56
H       7.94       7.60       5.60
H       8.13       7.83       1.19
H       2.21       7.42      -0.87
H       6.87       7.18      -2.21
H       3.73       6.09       1.65
C       5.39       5.72       6.02
C       4.59       5.34      -5.87
C       5.46       6.09       4.57
C       4.69       5.95      -4.51
C       4.33       6.00       3.69
C       5.93       6.38      -3.95
C       4.54       6.28       2.35
C       5.92       6.87      -2.64
C       5.77       6.73       1.82
C       4.76       6.94      -1.86
C       6.84       6.93       2.73
C       3.51       6.64      -2.48
C       6.69       6.56       4.08
C       3.49       6.17      -3.81
C       5.88       6.87       0.37
C       4.82       7.15      -0.42
C       2.95       5.57       4.14
C       1.88       5.51       3.05
C       7.25       6.35      -4.67
C       8.05       5.07      -4.39
C       2.15       5.93      -4.48
C       7.90       6.66       4.99
C       8.05       7.64       2.29
C       2.24       6.72      -1.74
O       8.80       5.83       5.02
O       8.92       8.07       3.05
O       1.23       6.08      -2.02
O       6.49       5.86       6.66
O       3.42       5.36      -6.40
O       4.31       5.31       6.53
O       5.62       4.83      -6.42
O       1.44       6.86      -4.84
