22

O      -0.34       7.63       6.78
O      -2.56      14.71       6.83
O      -0.33      14.56       7.12
F       0.87       9.91       7.42
H       0.54      12.42       7.22
H      -3.95       8.56       6.85
H      -6.14       9.70       6.84
H      -6.24      12.18       7.14
H      -4.15      13.50       7.22
C      -1.39       8.18       7.27
C      -4.00       9.64       6.94
C      -5.21      10.28       6.94
C      -5.27      11.68       7.08
C      -4.11      12.42       7.14
C      -2.83      11.80       7.10
C      -2.77      10.35       7.08
C      -1.50       9.67       7.19
C      -1.49      14.04       7.01
C      -0.37      10.46       7.25
C      -0.40      11.86       7.19
C      -1.60      12.54       7.11
O      -2.33       7.54       7.84
