30

H       7.41      14.53       7.49
H       7.56      17.46      11.48
H       5.67      19.04      10.24
H       6.95      23.89       7.94
H       5.07      23.57      11.79
H       7.14      21.42       7.82
C       7.65      13.10       9.70
C       5.97      25.37       9.94
C       6.02      23.88       9.88
C       6.60      23.27       8.76
C       6.72      21.89       8.70
C       6.29      21.07       9.77
C       5.68      21.72      10.87
C       5.54      23.10      10.93
C       7.54      16.82      10.60
C       7.60      15.44      10.76
C       7.47      15.18       8.36
C       7.44      16.56       8.20
C       7.48      17.41       9.33
C       6.45      19.62       9.75
C       7.45      18.89       9.23
C       7.57      14.60       9.63
Cl       7.62      14.81      12.36
Cl       8.88      19.57       8.51
Cl       5.13      20.78      12.22
Cl       7.29      17.22       6.61
O       6.86      12.47       8.91
O       6.78      25.99       9.17
O       8.50      12.60      10.50
O       5.14      25.91      10.75
