68

C       8.81       9.62      16.19
H       7.90      14.20      19.28
N      13.06       9.83       9.95
H       7.69      16.65      19.03
N      13.18       9.88      25.98
H       8.63      17.80      17.02
H       9.79      16.48      15.27
O       9.91      10.42      16.67
O      10.72      12.03      19.74
H      14.88      10.57      25.01
H      11.36       9.31      26.82
H      13.66      11.36      22.99
H      10.00      10.07      24.91
H      11.56      11.77      21.82
H       9.25      10.06      22.94
H      10.55      14.33      14.40
H      11.05      10.57      14.61
H      11.15      13.12      12.87
H      12.81       8.11      11.10
H      11.81       9.30      13.03
H      13.23      11.63       8.95
H      12.18      12.97      10.77
H       7.25      10.07      21.97
H       5.00       9.90      21.00
H       6.61      12.26      16.91
H       3.42      10.42      19.16
H       4.23      11.63      17.13
H      12.66      11.57      19.37
H      11.49      10.70      18.31
H      11.71      10.19      20.01
H       9.11       8.58      16.35
H       8.63       9.81      15.12
H       7.90       9.84      16.76
C       9.51      14.58      16.26
C       8.96      13.92      17.42
C       8.30      14.70      18.40
C       8.19      16.07      18.26
C       8.73      16.72      17.13
C       9.38      15.99      16.15
C      13.80      10.47      24.94
C      11.83       9.77      25.95
C      13.11      10.92      23.82
C      11.08      10.19      24.86
C      11.71      10.76      23.74
C      11.01      11.13      22.52
C       9.76      10.70      22.20
C      10.27      12.43      15.37
C      10.15      13.81      15.27
C       9.73      11.79      16.53
C       9.10      12.50      17.54
C      10.91      11.62      14.35
C      11.31      12.07      13.14
C      11.92      11.27      12.08
C      12.67       9.20      11.08
C      12.11       9.87      12.15
C      12.88      11.16       9.87
C      12.33      11.90      10.90
C       8.57      11.81      18.75
C       9.42      11.57      19.82
C       7.19      11.46      18.84
C       6.71      10.79      20.02
C       7.62      10.55      21.07
C       8.96      10.94      21.02
C       5.35      10.41      20.10
C       6.26      11.75      17.80
C       4.47      10.70      19.08
C       4.93      11.38      17.92
C      11.70      11.05      19.33
