39

H       5.95      -0.35      20.09
H       2.16      -0.76      22.12
H       1.02       0.07      20.09
H       3.54      -3.23      21.58
H       2.23      -4.95      22.76
H       4.29      -1.26      25.35
O       1.83      -0.10      16.80
O       1.42       1.86      17.84
O       4.54       1.00      16.74
O       6.33       0.28      17.90
O       2.28      -6.09      25.93
O       0.40      -5.03      25.32
O       2.03      -3.59      27.47
O       3.55      -1.92      27.47
C       2.01       0.76      17.78
C       2.83       0.29      18.95
C       4.23       0.16      18.97
C       4.87      -0.30      20.13
C       4.15      -0.64      21.27
C       2.75      -0.50      21.25
C       2.11      -0.04      20.10
C       5.08       0.51      17.78
C       4.84      -1.06      22.58
C       6.23      -1.73      22.35
C       5.06       0.26      23.38
C       4.00      -2.09      23.36
F       6.71      -2.32      23.47
F       6.15      -2.70      21.39
F       7.20      -0.85      21.94
F       5.61       1.24      22.63
F       3.87       0.74      23.86
F       5.89       0.11      24.47
C       2.88      -2.84      26.90
C       3.42      -3.16      22.66
C       3.84      -2.04      24.74
C       2.67      -4.12      23.32
C       3.08      -3.00      25.42
C       2.48      -4.05      24.71
C       1.67      -5.11      25.39
