36

N      -1.39       6.39      25.98
N      -2.13       2.20      28.70
N      -1.14       1.25      30.64
N      -0.23       3.23      29.70
N      -4.88      -1.90      29.65
N       2.95       2.15      33.43
C      -2.08       5.25      25.76
C      -2.06       4.19      26.65
H      -2.65       5.21      24.83
C      -0.55       5.46      28.02
C      -0.64       6.49      27.09
H      -0.10       7.43      27.22
C      -2.05       1.27      29.66
H      -2.86      -0.23      31.77
H      -3.41       0.26      27.52
C      -4.28      -1.53      30.79
C      -3.04       0.18      29.65
C      -0.23       2.23      30.59
C      -3.35      -0.51      30.83
H      -5.08      -1.62      27.61
H       2.39       0.22      33.91
H       3.41       4.09      32.84
C       2.72       3.25      32.68
H       0.47       0.18      32.26
C      -4.57      -1.27      28.50
H       1.53       4.21      31.16
C      -3.66      -0.22      28.46
C       0.87       2.20      31.58
C       1.70       3.32      31.75
C       1.10       1.06      32.37
C       2.16       1.08      33.27
C      -1.28       4.29      27.81
H      -2.64       3.28      26.46
H       0.07       5.56      28.91
C      -1.21       3.18      28.79
H      -4.56      -2.10      31.69
