10

H      -1.12       8.46       7.65
H      -0.98       5.38       7.68
O      -3.41       6.06       7.57
O       1.31       7.75       7.40
O      -3.65       8.30       7.81
O       1.55       5.55       7.90
C      -2.95       7.24       7.68
C       0.86       6.59       7.65
C      -1.48       7.43       7.66
C      -0.62       6.40       7.66
