16

H       8.59       5.86      10.17
H      10.90       5.10       5.96
H      10.79       7.45       9.05
H       8.70       3.51       7.08
H       9.74       7.89       5.97
H       9.74       3.07      10.16
C      10.25       6.59       8.62
C       9.23       4.37       7.51
C       9.17       5.70       9.26
C      10.31       5.26       6.87
C       9.47       6.51       7.27
C      10.01       4.45       8.86
N       8.41       5.61       7.92
N      11.07       5.35       8.21
O       9.00       7.51       6.48
O      10.49       3.44       9.65
