26

O       1.05       6.63       5.64
H      -1.12       3.96      -0.54
O       0.83       8.02      -1.18
O      -0.83       8.02       1.18
O       1.83       4.54       5.29
O      -1.83       4.54      -5.29
H      -0.03       7.64       3.65
H       0.03       7.64      -3.65
O      -1.05       6.63      -5.64
H       1.71       3.77       2.96
H      -1.71       3.77      -2.96
H       1.12       3.96       0.54
C       0.19       5.89       0.72
C      -0.19       5.89      -0.72
C      -0.21       6.82      -2.97
C      -1.19       4.65      -2.58
C       0.86       4.76       1.23
C      -1.28       5.61      -4.89
C      -0.86       4.76      -1.23
C       1.19       4.65       2.57
C       0.14       6.93      -1.62
C       0.21       6.82       2.97
C       1.28       5.61       4.89
C      -0.14       6.93       1.62
C      -0.87       5.69      -3.45
C       0.87       5.69       3.45
