14

C       0.34      12.08       2.46
C      -0.34       8.47      -2.46
C       0.41      10.79       0.19
C      -0.41       9.76      -0.19
C      -0.36       9.08      -1.40
C       0.36      11.46       1.40
I       1.89      11.47      -1.15
I      -1.89       9.08       1.15
O      -1.44       7.44      -4.21
O       1.44      13.11       4.21
O       0.84       7.49      -4.18
O      -0.84      13.06       4.18
C      -0.31       7.74      -3.70
C       0.31      12.80       3.70
