24

C       2.85      15.17       1.95
N       2.83      10.55      -1.94
N       3.44      15.94       2.60
H       0.06      10.90      -1.77
H       0.23      15.22       1.75
H      -2.02      14.56       0.92
O       4.78      13.23       1.37
H      -2.41      11.15      -1.67
O      -4.34      14.12       0.00
O      -4.48      11.92      -0.59
O       4.66      13.04      -0.90
C       1.87      12.45      -0.45
C       2.06      14.28       1.15
C       0.68      14.44       1.14
C      -0.15      13.60       0.36
C       4.17      13.17       0.26
C      -3.84      12.99      -0.31
C       2.67      13.29       0.32
C      -2.35      12.88      -0.37
C      -0.39      11.69      -1.17
C      -1.76      11.83      -1.12
C       0.45      12.56      -0.43
C      -1.56      13.76       0.35
C       2.45      11.43      -1.27
