28

H      26.69      18.04      18.32
H      27.77      20.03      14.66
H      26.99       9.74      13.88
O      27.15       8.27      11.94
H      27.46      11.78      10.12
O      27.31       9.36       9.94
O      26.84      20.47      18.49
O      27.62      21.49      16.61
C      27.23       9.32      11.22
C      27.23      20.47      17.27
C      27.23      19.16      16.56
C      26.93      17.99      17.26
C      26.93      16.77      16.60
C      27.23      16.67      15.21
C      27.52      17.89      14.54
C      27.53      19.11      15.19
C      27.23      15.43      14.54
C      27.23      14.36      13.95
C      27.23      13.12      13.28
C      27.09      11.89      13.98
C      27.09      10.67      13.32
C      27.23      10.63      11.93
C      27.37      11.82      11.20
C      27.37      13.03      11.87
Br      27.93      17.87      12.69
Br      26.53      15.21      17.58
Br      27.58      14.61      10.85
Br      26.88      11.89      15.86
