20

O      25.09       6.42       7.36
O      26.43       8.25       7.36
O      22.59      11.07       2.22
O      21.25       9.24       2.22
H      23.74       6.00       6.46
H      23.95      11.50       3.13
O      23.10       6.25       5.74
O      24.58      11.24       3.84
H      21.25       7.82       3.13
H      26.44       9.67       6.46
O      21.68       7.29       3.84
O      26.00      10.20       5.74
C      25.42       7.59       6.90
C      22.27       9.90       2.68
C      24.62       8.18       5.83
C      23.07       9.31       3.75
C      23.50       7.47       5.31
C      24.19      10.03       4.28
C      22.73       8.03       4.28
C      24.96       9.46       5.31
