28

H       0.98       6.00       6.41
H      -1.31       4.54       4.83
H      -1.79       7.29       9.18
H      -3.10       7.02       8.00
H      -0.72       8.93       7.61
H      -2.02       8.65       6.43
H      -3.71       9.56       8.03
H      -2.43      10.76       7.75
H      -2.45       9.82       9.25
H       1.46       1.90       3.31
H       2.77       3.05       3.68
H       0.39       3.61       1.81
H       1.69       4.76       2.19
H       3.38       3.24       1.14
H       2.10       3.62      -0.02
H       2.12       2.04       0.78
C      -0.88       5.12       5.64
C       0.55       5.24       5.77
C      -2.05       7.33       8.11
C      -1.79       8.69       7.50
C      -2.64       9.77       8.17
C       1.72       2.97       3.36
C       1.46       3.69       2.05
C       2.31       3.11       0.93
N       1.41       4.53       5.10
N      -1.74       5.73       6.40
O      -1.19       6.31       7.52
O       0.86       3.47       4.42
