10

C       0.71      12.81       1.80
O       1.86       8.13       7.36
C       0.75       8.34       6.76
O      -0.37       7.81       7.03
O       1.86      13.20       1.41
O      -0.43      13.12       1.32
C       0.71      11.87       2.90
C       0.74      11.05       3.80
C       0.76      10.13       4.79
C       0.77       9.30       5.69
