18

H      14.65       5.78      18.81
H      20.01       3.66      21.66
C      16.21       5.50      19.85
C      16.35       4.15      19.42
C      18.24       5.25      21.17
C      18.40       3.91      20.72
C      17.15       6.02      20.73
C      17.43       3.38      19.86
O      14.45       4.29      18.02
O      15.48       2.28      18.25
C      15.37       3.52      18.51
H      17.05       7.04      21.08
H      17.53       2.35      19.53
C      19.21       5.87      22.10
O      15.20       6.31      19.45
O      20.26       5.17      22.41
O      19.43       3.11      21.08
O      18.97       7.04      22.55
