16

O      11.22       0.91       2.78
O      15.90       3.81       7.10
O      12.45       1.67       1.03
O      17.13       4.56       5.34
C      12.21       1.52       2.27
F      16.28       4.04       2.90
F      12.07       1.44       5.22
H      14.41       2.89       1.60
C      13.20       2.14       3.22
C      15.25       3.40       3.51
C      13.10       2.07       4.62
C      14.30       2.82       2.68
C      14.05       2.66       5.44
C      15.15       3.34       4.91
H      13.94       2.59       6.52
C      16.14       3.96       5.85
