20

H      15.59       1.36       2.57
H      17.57       3.56       3.43
H      16.86       5.14       5.04
H      15.20       6.01       6.69
H      12.51       2.83       5.67
H      14.14       1.95       4.02
C      17.59       1.51       1.74
C      16.49       1.97       2.61
C      16.62       3.02       3.45
C      15.62       3.49       4.40
C      15.90       4.63       5.18
C      14.98       5.12       6.10
C      13.76       4.47       6.28
C      13.46       3.33       5.52
C      14.38       2.84       4.60
C      12.76       5.01       7.25
O      17.35       0.43       1.09
O      18.67       2.19       1.69
O      13.06       6.11       7.84
O      11.68       4.35       7.41
