34

O      18.75       6.20      13.49
H      19.90      -1.72      12.76
H      18.21       4.01      12.88
H      14.93       1.38      11.62
H      21.81      -0.23      13.15
H      18.27      -2.84      13.07
H      22.33       4.48      13.90
H      14.10      -3.30      12.28
H      13.90      -0.86      11.76
H      22.70       2.02      13.62
H      16.84       2.86      12.00
C      16.35      -4.63      13.09
C      19.96       5.82      13.59
C      16.22      -3.18      12.72
C      20.23       4.36      13.39
C      14.87      -1.30      12.04
C      21.71       2.46      13.44
C      14.97      -2.64      12.33
C      21.52       3.81      13.60
C      17.34      -2.37      12.76
C      19.18       3.54      13.00
C      17.27      -1.00      12.46
C      19.35       2.15      12.84
C      16.00      -0.44      12.12
C      20.64       1.60      13.08
C      18.42      -0.13      12.58
C      18.24       1.28      12.51
C      16.96       1.79      12.14
C      19.74      -0.64      12.79
C      15.89       0.96      11.92
C      20.81       0.19      13.00
O      15.35      -5.39      12.90
O      20.95       6.59      13.84
O      17.48      -4.98      13.58
