36

O       0.38       6.14       4.60
O      -0.38      13.63      -4.62
H      -1.87       7.95      -1.79
H      -1.90       7.34      -0.23
H       1.39      12.17       2.16
H       2.26      12.35       0.73
O       1.90      13.61      -4.64
O      -1.90       6.15       4.56
O      -3.42      11.04      -0.50
O       2.65       9.39       2.47
H       1.34       7.83      -2.09
H       1.41       9.31      -2.84
H      -2.51      11.01       1.87
H      -1.26      10.98       2.94
H      -2.23      11.53      -2.08
H       3.20       8.50       0.72
C       0.76      13.30      -4.17
C      -0.75       6.49       4.13
C       0.80       9.39      -0.91
C      -0.72      10.60       1.03
C      -0.66       8.94      -0.46
C       0.73      11.05       0.61
C      -0.69       7.38       3.00
C       0.73      12.46      -2.99
C       1.22       9.49       0.60
C      -1.11      10.52      -0.48
C      -0.23       9.06       1.04
C       0.35      10.90      -0.92
C      -0.51       8.14       2.06
C       0.61      11.77      -2.00
C      -2.32      11.07      -1.07
C       2.44       9.09       1.29
N      -1.33       7.81      -0.94
N       1.34      12.18       1.14
N       1.56       8.81      -1.96
N      -1.52      11.24       1.99
