27

N       0.05      -1.70      11.75
C       2.46      -3.94      10.97
H       2.67      -3.78       9.92
C       2.12      -3.82      13.15
H       2.02      -3.54      14.19
C       0.97       3.52      11.08
C       2.48      -3.03      12.04
H       0.87       3.13      10.07
H       3.35      -0.96      11.84
H       0.24       0.80      11.04
H       2.40       1.15      13.20
C       1.22      -0.95      11.85
C       2.45      -1.56      11.95
C       1.04       0.49      11.73
C       1.69       1.45      12.42
H      -1.06      -0.69      13.28
H       1.65       3.82      14.27
C       1.40       3.88      13.22
C      -1.21      -1.22      12.33
N       2.09      -5.17      11.41
H       0.20      -2.69      11.88
H      -1.85      -2.09      12.51
H      -1.75      -0.56      11.64
N       0.70       4.81      11.35
N       1.89      -5.09      12.75
N       0.95       5.03      12.69
C       1.42       2.86      12.24
