30

O       7.13       5.78       8.00
H       6.20       4.46       3.33
O       5.07       1.26       1.37
H       3.47       1.19       5.94
F       3.92       2.22       8.12
H       8.81       5.57       5.97
H       8.66       6.24       4.30
H       8.36       4.50       4.60
H       5.99       7.54       8.04
H       7.34       7.54       6.85
H       7.68       7.64       8.62
H       3.79       0.90       3.48
C       5.23       4.31       9.61
C       6.23       5.00       7.36
C       4.69       3.11       7.45
C       4.71       2.97       6.05
C       5.46       3.93       5.30
C       5.43       2.38       1.87
C       5.03       2.67       3.27
C       5.41       4.10       8.14
C       5.59       3.76       3.90
C       6.18       4.95       5.97
C       8.26       5.51       5.01
C       7.02       7.22       7.85
C       4.23       1.74       4.00
C       4.07       1.90       5.36
O       6.18       3.23       1.28
O       4.60       3.43      10.28
O       5.64       5.41      10.10
O       6.88       5.86       5.20
