28

H       5.99       5.79       3.32
H       9.84       4.05      -3.45
H       6.84       7.13      -3.46
H       6.89       7.17      -1.00
H      10.14       4.71       3.43
H      10.24       4.88       0.97
H       5.14       6.26       1.33
H      10.35       3.20      -1.50
C       7.96       5.04       5.01
C       8.31       5.50      -5.10
C       8.05       5.23       3.54
C       8.33       5.57      -3.61
C       6.93       5.62       2.80
C       7.00       5.77       1.41
C       9.17       4.72      -2.90
C       9.13       4.67      -1.51
C       7.49       6.45      -2.92
C       7.51       6.46      -1.53
C       9.26       5.01       2.86
C       9.32       5.13       1.48
C       8.20       5.50       0.70
C       8.29       5.55      -0.77
O       6.80       5.14       5.55
O       7.21       5.80      -5.68
O       9.38       5.14      -5.69
O       9.04       4.77       5.62
O       5.88       6.16       0.71
O       9.88       3.74      -0.84
