36

H       5.52       0.90      22.21
H       5.96       2.46      19.85
C       5.27       1.66      20.17
H       5.63       2.65      22.11
H       1.97       3.29      21.75
C       2.87       0.88      19.89
C       2.87       0.73      21.42
C       3.22       1.63      24.72
C       3.89       1.98      19.49
C       5.09       1.78      21.71
C       3.60       1.91      22.10
H       1.88       1.19      19.53
C       5.92       0.32      19.82
H       3.11      -0.07      19.41
C       6.45       0.16      18.39
H       3.34      -0.21      21.74
H       4.10       4.11      19.83
H       2.46       3.60      19.47
Br       1.03       0.58      22.15
H       3.51       4.08      22.10
O       4.44       3.86      15.09
H       5.66       0.11      17.64
H       7.11       0.99      18.11
H       7.05      -0.76      18.31
H       6.76       0.19      20.52
H       5.22      -0.51      20.06
O       1.71       2.04      26.42
O       5.55       1.87      15.07
C       4.74       2.72      15.59
C       3.05       3.25      21.55
O       2.91       0.10      26.44
C       3.36       3.33      20.04
C       3.44       1.80      23.54
C       4.03       2.12      18.05
C       4.20       2.38      16.87
C       2.59       1.25      25.95
