20

O       1.24      -2.94      13.30
H      -2.07       1.08      10.84
H      -2.04      -0.95      12.27
H       3.29      -0.68      12.60
H       3.13      -1.68      11.14
H       3.26       1.41      11.17
H       3.11       0.39       9.71
C       0.04       2.37       9.71
C       1.25       0.51      10.90
C       0.06       1.16      10.56
C      -1.13       0.60      11.08
C      -1.11      -0.54      11.88
C       0.10      -1.20      12.21
C       1.27      -0.64      11.70
C       2.77      -0.77      11.64
C       2.76       0.53      10.73
C       0.10      -2.41      13.07
O      -1.03      -2.82      13.51
O      -1.09       2.93       9.51
O       1.17       2.75       9.24
