27

H       4.81       8.05      16.01
H       4.12      12.24      15.36
H       2.68       7.51      14.80
C       5.91      10.49      16.37
C       4.60      10.18      15.73
H       2.00      11.70      14.12
C       4.18       8.85      15.60
H      -0.81       9.05      11.96
C       3.80      11.21      15.23
H       3.46       9.62      12.21
C       3.01       8.54      14.93
H      -0.66       9.16       9.46
C       2.62      10.92      14.55
H       3.59       9.73       9.73
C       2.26       9.58      14.37
C       1.31       9.33      12.23
C       0.14       9.19      11.46
C       2.55       9.52      11.62
O       6.22      11.72      16.49
O       6.64       9.50      16.72
C       0.23       9.26      10.08
O       1.14       9.27      13.60
C       2.63       9.58      10.23
C       1.47       9.45       9.44
O       2.70       9.51       7.39
C       1.57       9.48       7.96
O       0.47       9.46       7.27
