23

H       6.74       9.64       2.74
H       1.66       8.97       4.25
H       1.47      10.43       3.24
C       7.56      11.17       4.76
H       1.90      11.88       5.23
H       2.06      10.44       6.26
O       6.52      12.21       6.93
O       4.26      12.33       7.19
O       3.27       8.26       1.48
O       5.54       8.22       1.32
H       7.70       9.55       5.79
O       8.29      10.27       5.49
O       8.09      12.17       4.31
C       5.31      11.96       6.57
C       4.45       8.61       1.84
C       4.61       9.54       3.00
C       5.09      11.17       5.34
C       3.57      10.00       3.81
C       6.14      10.76       4.49
C       3.81      10.79       4.94
C       5.91       9.96       3.37
C       2.07       9.97       4.03
C       2.34      10.88       5.29
