36

C       8.65      -2.09      16.73
C       8.50      -1.75      15.38
C       7.34      -2.11      14.70
C       6.33      -2.84      15.38
C       6.50      -3.19      16.75
C       7.66      -2.80      17.41
C       5.16      -3.22      14.70
C       4.13      -3.55      14.10
C       2.96      -3.92      13.43
C       2.91      -3.86      12.00
H       9.30      -1.20      14.88
H       7.81      -3.05      18.46
C       1.74      -4.22      11.34
C       1.82      -4.36      14.16
C       0.67      -4.74      13.47
H       1.67      -4.18      10.25
C       0.63      -4.67      12.07
H      -0.21      -5.09      14.01
N       5.48      -3.88      17.40
N       7.16      -1.81      13.35
N       1.90      -4.45      15.54
N       4.02      -3.39      11.31
O      -1.55      -5.57      12.05
O      -0.64      -4.87      10.09
H       4.88      -4.44      16.80
H       5.75      -4.34      18.26
H       6.20      -1.75      13.04
H       7.75      -1.07      12.99
H       2.58      -3.82      15.98
H       1.02      -4.49      16.03
H       4.91      -3.51      11.78
H       4.05      -3.62      10.32
O      10.83      -1.16      16.75
O       9.94      -1.92      18.71
C      -0.61      -5.06      11.35
C       9.90      -1.69      17.45
