26

H       5.03       3.75      12.73
H       8.39      -1.48       7.77
H       8.84       2.52       9.79
H       4.55       1.48       8.87
H       4.76       1.93      11.07
H       8.65       0.29       9.50
H       9.12       4.28      11.53
H       4.28      -0.37       7.22
C       7.21       5.22      13.24
C       6.21      -2.11       6.37
C       5.71       2.46      11.14
C       7.70       0.18       8.98
C       5.86       3.47      12.09
C       7.55      -0.83       8.03
C       7.09       4.12      12.24
C       6.32      -1.03       7.39
C       8.17       3.76      11.42
C       5.23      -0.21       7.72
C       8.01       2.76      10.46
C       5.38       0.81       8.66
C       6.78       2.09      10.31
C       6.62       1.02       9.30
O       6.11       5.65      13.71
O       7.32      -2.57       5.94
O       8.37       5.65      13.55
O       5.05      -2.50       6.00
