22

O      20.88       6.68      14.44
O      24.57       9.09       8.57
O      25.74       9.78      10.40
O      19.80       6.02      12.53
H      18.65       7.12      10.27
H      19.28       8.64      10.14
F      22.28       7.16       7.88
F      21.30       9.09       8.35
H      24.82       8.82      12.53
H      23.09       7.72      13.95
H      20.58       6.08       9.50
C      24.77       9.19       9.82
C      22.55       8.04      10.16
C      23.74       8.55      10.69
C      23.91       8.42      12.08
C      22.94       7.81      12.87
C      21.75       7.28      12.32
C      21.59       7.42      10.94
C      20.63       7.14       9.77
C      21.73       7.89       8.90
C      20.73       6.61      13.17
N      19.29       7.70       9.73
