16

C       2.34      -0.35       8.36
C       1.13      -0.48       9.05
S       3.07      -1.86       8.00
S       0.41       1.03       9.41
Cl      -0.63      -2.28      10.14
Cl       4.10       1.44       7.27
O       2.80       3.95       8.45
C       1.70       3.34       8.66
O       2.90      -4.72       8.58
C       1.76      -4.17       8.75
O       0.66      -4.78       8.92
O       0.57       3.89       8.88
C       0.78      -1.84       9.27
C       2.69       1.01       8.14
C       1.74      -2.70       8.75
C       1.74       1.87       8.66
