18

O       1.92       4.29       6.31
C      -0.16       5.17       7.02
H      -0.30       5.89       9.05
C      -0.85       5.58       8.16
O      -4.29       6.12       9.27
H      -0.30       4.45       4.99
O      -4.29       4.22       4.77
C      -0.85       4.77       5.87
H      -4.03       5.17       7.02
C      -2.94       5.17       7.02
C      -2.25       4.78       5.87
C      -3.03       5.93       9.38
C       1.34       5.17       7.02
C      -3.03       4.41       4.65
O      -2.44       6.02      10.51
C      -2.25       5.56       8.17
O      -2.44       4.32       3.53
O       1.92       6.05       7.73
