16

C      14.49       3.20       0.01
C      18.29      -3.28      -0.01
O      13.65       3.37       0.96
O      19.14      -3.46      -0.95
H      16.17      -2.29       1.63
O      14.76       4.05      -0.91
O      18.05      -4.08       0.96
S      14.84       0.72       1.16
C      16.51      -1.65       0.83
S      17.90      -0.82      -1.24
C      17.52      -2.02      -0.04
C      16.03      -0.36       0.51
C      16.70       0.22      -0.59
C      15.22       1.93      -0.03
C      16.24       1.52      -0.90
Cl      16.93       2.43      -2.17
