27

C      21.93      12.36      14.26
O      19.65      13.56      13.12
O      25.86      12.53      16.75
O      20.89      15.47      13.00
O      24.44      10.87      17.41
O      23.40      10.51      14.77
H      21.40      11.78      13.51
O      23.94      14.62      17.13
H      21.51       9.63      14.49
H      22.31       9.30      16.07
H      22.93       8.54      14.57
H      22.51      16.64      14.88
H      20.91      16.19      15.42
H      22.25      16.27      16.60
H      25.80      14.93      16.22
H      25.39      15.96      17.63
H      24.63      16.29      16.04
C      22.47       9.44      14.99
C      21.97      15.99      15.58
C      25.00      15.50      16.71
C      21.64      13.72      14.40
C      22.31      14.54      15.34
C      23.31      13.92      16.11
C      23.64      12.56      15.96
C      20.64      14.30      13.44
C      24.73      11.94      16.77
C      22.95      11.78      15.01
