24

O       2.81       6.43       7.99
O       1.66       5.72      -3.05
H       0.90       6.11      -0.74
H       5.10       5.33      -1.13
H       5.84       6.09       5.39
H       1.55       6.13       5.84
H       5.36       5.46       1.36
H       1.15       6.22       1.75
C       3.88       6.37       7.31
C       2.83       5.60      -2.57
C       2.99       5.70      -1.08
C       3.27       5.83       1.71
C       1.87       5.96      -0.27
C       4.24       5.53      -0.49
C       3.72       6.17       5.84
C       4.82       6.06       4.98
C       2.46       6.07       5.24
C       3.43       5.89       3.17
C       4.39       5.59       0.89
C       2.01       6.02       1.11
N       4.69       5.94       3.66
N       2.31       5.92       3.92
O       3.89       5.41      -3.25
O       5.07       6.47       7.75
