26

H      10.86       9.31      14.19
H      14.39       8.88      17.32
H      14.39      10.56      16.35
H      10.86       7.64      15.16
O      11.45      13.82      12.68
O      13.30       4.73      19.45
C      12.41      13.64      13.49
O      13.30      14.48      13.82
C      12.41       4.86      18.56
O      11.45       4.07      18.31
C      12.51      12.28      14.11
C      12.51       6.08      17.69
C      11.57      11.28      13.81
C      13.54       7.02      17.88
C      13.54      11.98      15.02
C      11.57       6.32      16.68
C      11.63      10.04      14.44
C      13.59       8.17      17.12
C      13.59      10.74      15.64
C      11.63       7.48      15.91
H      10.77      11.51      13.10
H      14.27       6.83      18.66
H      14.27      12.75      15.25
H      10.77       5.59      16.52
C      12.63       9.74      15.38
C      12.63       8.45      16.13
