52

C       4.48       3.43      10.30
C       2.13      -2.51      15.50
C       6.00       0.59      15.23
C       0.52       0.35      10.69
C       5.26       3.43      13.29
H       5.24       1.34      15.52
H       6.83       1.09      14.72
H       0.54       0.49      11.78
H      -0.04      -0.56      10.44
H       0.06       1.22      10.20
H       6.36       0.07      16.12
C       0.09      -2.67      13.31
C       4.85       5.78      10.52
C       0.84      -2.22      17.40
N       3.94       0.26      12.17
N       2.95      -0.04      12.89
O       4.59       4.68       7.70
O       2.47      -4.42      17.52
H       4.33       3.16      13.82
H       5.17       4.44      12.89
H       6.11       3.38      13.98
H      -0.32      -3.14      14.21
H       0.69      -3.41      12.75
H      -0.71      -2.28      12.67
O       4.73      -4.26      17.46
O       2.32       4.62       7.68
O       5.45      -0.31      14.25
O       1.87       0.13      10.19
H       4.05       5.81      11.28
H       4.46       6.17       9.56
H       5.69       6.41      10.83
H       0.62      -1.15      17.24
O       5.54       2.47      12.25
O       0.90      -1.53      13.64
H       1.76      -2.31      17.99
H       0.03      -2.72      17.91
C       3.55      -3.90      17.12
C       3.46       4.29       8.14
O       5.38       4.45      10.41
O       0.97      -2.87      16.11
F       5.61      -2.03      16.35
F       1.69       2.09       8.33
C       3.49       3.33       9.28
C       3.39      -2.78      16.11
C       2.62       2.24       9.31
C       4.45      -1.98      15.68
C       2.68       1.22      10.27
C       4.39      -1.08      14.61
C       3.70       1.31      11.25
C       3.18      -1.01      13.87
C       4.58       2.41      11.27
C       2.06      -1.75      14.32
