26

N       6.39      10.38       1.21
N       6.43      17.34       1.24
H       4.92      10.44      -0.25
H       3.99      12.64      -1.19
H       7.85      10.38       2.65
H       7.90      17.28       2.69
H       8.85      15.08       3.61
H       4.97      17.34      -0.20
O       3.81      15.18      -1.37
O       9.03      12.53       3.80
H       3.87      16.15      -1.28
H       8.95      11.56       3.72
C       5.57      11.05       0.39
C       5.54      12.45       0.34
C       4.67      13.18      -0.52
C       7.23      11.03       2.03
C       7.29      12.43       2.08
C       8.18      13.16       2.95
C       7.26      16.67       2.05
C       7.30      15.26       2.08
C       8.17      14.54       2.95
C       5.60      16.69       0.41
C       5.55      15.29       0.35
C       4.66      14.55      -0.53
C       6.42      13.15       1.21
C       6.42      14.56       1.21
