21

O       1.39       4.53      13.27
C      -1.38       6.93      13.26
C       1.51       6.95      13.27
C      -0.64       8.12      13.27
C       0.77       5.73      13.27
C       0.75       8.12      13.28
H      -1.17       4.78      13.27
H      -1.19      10.08      12.37
H      -1.21      10.08      14.16
H       1.31      10.07      14.17
H       1.32      10.07      12.39
C      -0.64       5.74      13.27
C      -0.74       9.63      13.27
C       0.85       9.63      13.28
H       2.37       4.75      13.24
C       2.99       6.96      13.27
C      -2.87       6.91      13.24
O       3.59       8.08      13.28
O       3.59       5.81      13.24
O      -3.45       5.78      13.24
O      -3.46       8.05      13.24
