42

H       4.72       7.34       7.34
H       4.00       7.52      23.18
H       4.65       7.96       9.78
H       4.07       6.90      20.73
H       1.11       5.49      10.13
H       7.61       9.36      20.38
H       1.29       5.03       7.69
H       7.43       9.82      22.83
H       1.89       6.52      12.07
H       6.83       8.33      18.45
H       1.40       8.42      13.47
H       7.33       6.44      17.05
H       5.93       7.00      13.00
H       2.79       7.86      17.51
H       7.74       6.38      14.59
H       0.98       8.48      15.92
N       3.00       6.18       7.42
N       5.73       8.68      23.09
N       3.66       7.61      12.28
N       5.07       7.25      18.23
C       3.92       6.98       7.99
C       4.80       7.87      22.52
C       3.89       7.31       9.34
C       4.83       7.54      21.17
C       2.86       6.79      10.14
C       5.86       8.07      20.37
C       1.90       5.96       9.54
C       6.82       8.89      20.97
C       2.00       5.68       8.19
C       6.72       9.18      22.32
C       2.76       7.00      11.59
C       5.96       7.86      18.93
C       2.19       8.14      14.16
C       6.53       6.72      16.35
C       3.42       7.72      13.65
C       5.31       7.13      16.86
C       4.49       7.40      14.55
C       4.24       7.46      15.96
C       5.76       7.01      14.08
C       2.96       7.85      16.44
C       6.76       6.66      14.97
C       1.96       8.19      15.55
