28

O      -2.48      26.22       8.37
O      -4.68      26.46       7.95
O      -4.68      14.20       1.25
H      -5.69      18.49       3.37
H      -1.47      18.07       4.13
O      -2.48      13.97       1.67
H      -1.47      21.94       6.25
H      -5.69      22.35       5.48
C      -3.58      25.82       7.88
C      -3.58      14.60       1.74
C      -3.58      15.92       2.46
C      -2.40      16.47       3.04
C      -2.40      17.69       3.71
C      -3.58      18.44       3.84
C      -4.77      17.93       3.28
C      -4.76      16.71       2.61
C      -3.58      19.68       4.52
C      -3.58      20.75       5.10
C      -3.58      21.99       5.78
C      -2.40      22.50       6.34
C      -2.40      23.72       7.01
C      -3.58      24.50       7.16
C      -4.76      23.95       6.58
C      -4.77      22.73       5.91
Br      -0.67      15.67       3.01
Br      -6.49      16.25       1.95
Br      -0.67      24.18       7.67
Br      -6.49      24.76       6.61
