30

H       2.46       4.92       6.23
H       2.29       2.47       6.02
H       6.49       4.70       7.37
H       1.99      -4.48       7.33
H       6.02      -4.73       6.24
H       6.21      -2.28       6.04
H       6.35       0.37       5.97
H       0.62      -0.26       5.93
C       3.33       4.30       6.43
C       3.24       2.92       6.30
C       4.36       2.12       6.57
C       5.55       2.79       6.96
C       5.58       4.17       7.07
C       4.29       0.71       6.47
C       4.21      -0.51       6.46
C       4.13      -1.91       6.55
C       2.93      -2.57       6.92
C       2.91      -3.96       7.04
C       5.15      -4.10       6.43
C       5.25      -2.72       6.30
S       7.00       1.85       7.40
S       1.45      -1.66       7.32
N       4.48       4.91       6.81
N       4.00      -4.70       6.79
O       7.17       0.93       6.04
O       8.15       2.68       7.41
O       6.65       0.98       8.48
O       1.12      -1.12       5.84
O       0.44      -2.59       7.73
O       1.79      -0.54       8.16
