14

O       5.65       3.27       8.19
H       4.84       0.95       8.14
C       5.86      -0.95       7.83
H       7.86       0.90       7.48
C       6.87       1.30       7.72
C       5.80       0.49       7.89
H       6.82      -1.42       7.60
C       4.80      -1.75       8.07
C       6.79       2.77       7.88
H       3.82      -1.33       8.30
O       6.05      -3.76       7.91
O       3.81      -3.86       8.26
C       4.90      -3.23       8.08
O       7.87       3.42       7.68
