31

C      12.36      12.94       4.53
C      11.00      14.64       6.36
N      14.20      10.11       3.12
N       9.50      17.27       8.54
N      14.81      11.14       2.42
H      12.79       8.94       4.74
H      10.75      12.44       2.53
N       8.75      16.11       8.90
H      12.53      15.22       8.27
H      14.52      13.40       6.83
H       8.88      14.23       4.01
H      14.85       9.30       3.44
Cl      14.54      13.81       2.22
H      11.43      18.45       7.64
Cl       8.81      13.48       8.50
C      13.21      10.61       3.89
C      10.42      16.84       7.58
C      14.14      12.25       2.77
O      10.29      13.00       3.19
O      12.48       9.89       4.74
C       9.26      15.09       8.20
O      13.05      14.61       7.71
O      14.28      13.00       5.97
O       9.07      14.56       4.92
O      11.31      17.63       7.01
C      13.11      12.00       3.68
C      10.28      15.48       7.32
C      11.04      13.35       4.28
C      12.33      14.25       6.60
C      12.99      13.40       5.70
C      10.38      14.18       5.19
