25

H      10.62       3.54       8.82
H      12.59       0.68       9.03
H       5.30       1.86       7.71
H      11.54      -2.22       8.71
O      11.94       1.41       8.95
O       5.98       1.19       7.91
O      11.78      -1.26       8.88
O       7.79       5.99       7.73
H       6.44       3.84       7.82
H       7.23      -0.89       8.39
O      10.29      -3.34       8.44
O       9.64       5.77       9.04
O       8.11      -3.17       9.05
C       8.66       5.30       8.36
C       8.54       3.82       8.34
C       9.34      -1.18       8.65
C      10.72       0.82       8.78
C      10.62      -0.56       8.76
C       8.20      -0.40       8.48
C       9.23      -2.65       8.72
C       8.30       1.00       8.40
C       9.57       1.64       8.60
C       9.66       3.05       8.61
C       7.29       3.21       8.06
C       7.17       1.83       8.12
