20

H       7.74      17.01       9.31
H      10.78      20.07       9.31
H      10.80      20.05       6.82
H       7.73      17.02       6.82
C       9.26      18.54      13.54
C       9.26      18.54       2.58
C       8.40      17.68       7.37
C      10.13      19.39       7.37
C      10.12      19.40       8.75
C       8.40      17.67       8.75
C       9.26      18.54       6.65
C       9.26      18.54       9.47
C       9.26      18.54       5.24
C       9.26      18.54      10.88
C       9.26      18.54      12.10
C       9.26      18.54       4.02
O       9.27      19.68      14.12
O       9.26      17.39      14.12
O       8.12      18.53       2.01
O      10.41      18.55       2.01
