34

H       6.70      13.31      21.71
H       8.38      15.53      25.12
H       6.70      13.31      24.23
H       8.61      10.91      20.81
C       8.67      10.69      21.87
C       8.67      10.69      24.07
H       8.61      10.91      25.13
H       8.89      17.82      20.81
H       6.85      15.65      21.70
H       8.89      17.82      25.13
C       8.48      11.54      22.97
C       8.96      18.03      21.87
C       8.96      18.03      24.07
H       6.85      15.65      24.24
H       8.22      13.22      20.82
H       8.22      13.23      25.12
N       8.97       9.44      22.29
N       8.97       9.44      23.65
H      10.42      13.09      22.09
H      10.42      13.09      23.85
N       9.24      19.29      22.28
N       9.24      19.29      23.66
H      10.57      15.42      22.09
H      10.57      15.42      23.85
H       8.37      15.53      20.82
C       8.77      17.18      22.97
C       7.75      13.64      21.72
C       7.75      13.64      24.22
C       7.85      15.18      21.72
C       7.85      15.19      24.22
C       9.92      13.52      22.97
C       8.44      13.05      22.97
C       8.60      15.69      22.97
C      10.02      15.06      22.97
