16

C       7.89      12.91       5.40
H       7.91      12.99       7.55
H       9.08      15.22       7.62
H       9.16      15.31       3.33
H       7.98      13.09       3.26
C       8.18      13.51       6.64
C       8.83      14.74       6.67
C       8.23      13.56       4.21
O       7.03      11.05       4.22
O       6.97      11.04       6.50
O      10.24      17.15       6.66
O      10.29      17.16       4.39
C       9.19      15.39       5.48
C       8.87      14.80       4.25
C       7.24      11.56       5.37
C       9.96      16.67       5.51
