16

O      22.16      21.47      30.62
F      18.35      20.64      27.70
F      22.56      17.51      29.24
O      23.40      19.56      30.67
C      20.59      17.77      28.02
O      18.77      16.68      26.29
C      18.51      17.88      26.64
H      20.21      21.40      29.28
C      21.43      19.63      29.36
C      19.49      18.52      27.58
C      21.53      18.31      28.88
C      20.32      20.38      28.93
C      22.41      20.27      30.29
C      19.38      19.84      28.07
H      20.71      16.74      27.66
O      17.51      18.58      26.29
