28

H       5.57       0.19       9.91
H       6.64      -0.08       4.44
H       7.12       4.13       3.22
H       5.09      -4.01      11.12
C       5.52      -3.91       7.59
C       6.69       4.02       6.75
C       6.51       2.53       6.63
C       5.70      -2.41       7.71
C       5.70      -0.32       8.96
C       6.51       0.43       5.39
C       5.55      -1.69       8.93
C       6.67       1.81       5.41
C       6.01      -1.71       6.56
C       6.20       1.82       7.79
C       7.00       2.45       4.10
C       6.19      -0.29       6.55
C       5.21      -2.33      10.25
C       6.02       0.41       7.79
Cl       6.03       2.68       9.28
Cl       6.18      -2.57       5.06
O       6.58      -4.60       7.57
O       6.86       3.80       4.11
O       4.87      -1.71      11.24
O       5.35      -3.68      10.23
O       5.63       4.71       6.77
O       4.33      -4.32       7.47
O       7.88       4.44       6.87
O       7.35       1.82       3.11
