20

H       7.14       5.28      14.93
H       7.14       9.59      17.42
H       7.13       5.28      17.42
H       7.15       9.59      14.93
C       7.17       7.44      12.13
C       7.10       7.44      21.67
C       7.11       7.44      20.22
C       7.14       6.22      16.87
C       7.15       8.65      15.48
C       7.14       6.22      15.48
C       7.14       8.65      16.87
C       7.13       7.44      17.59
C       7.15       7.44      14.76
C       7.12       7.44      19.00
C       7.16       7.44      13.35
C       7.18       7.44      10.69
O       7.18       6.30      10.12
O       7.10       8.58      22.23
O       7.10       6.30      22.23
O       7.18       8.58      10.12
