16

O      17.84      12.31       3.72
C      14.52      15.12      -3.14
O      14.84      16.23      -3.68
H      18.23      15.74       1.47
H      14.34      12.89      -1.35
C      17.52      14.95       1.22
C      15.03      13.68      -1.09
C      17.38      13.81       2.00
C      15.19      14.81      -1.87
S      16.20      12.69       1.38
C      16.66      14.91       0.10
C      15.87      13.73       0.04
S      16.35      15.94      -1.24
O      19.02      14.27       3.62
O      13.68      14.27      -3.59
C      18.13      13.45       3.20
