16

O       1.29      12.16      15.70
O      -0.95      12.44      15.46
H       2.16      10.53      13.97
H      -0.80      11.15      13.33
H       2.26       9.41      11.86
O      -1.91       9.66      12.49
O       1.70       7.82      10.02
C       0.18      11.97      15.10
C      -1.18       8.83      11.96
H      -1.58       7.81      11.75
O      -0.52       8.04       9.60
C       0.53       8.21      10.32
C       1.21      10.44      13.42
C       0.15      11.16      13.86
C       1.25       9.61      12.24
C       0.24       8.97      11.57
