32

C       4.40      11.39       7.23
C       4.05      10.36       6.37
C       5.30      12.20       9.43
C       3.38      11.88      11.07
C       2.20      12.55      11.29
C       3.27      13.63       9.71
N       3.55       8.85       2.34
N       4.04       8.22       4.39
H       5.59       9.21       1.69
N       4.05      12.59      10.08
H       6.18       8.41       4.28
N       2.14      13.64      10.43
H       1.99       8.30       3.71
H       4.46       6.98       6.02
H       2.83       7.66       5.98
H       5.31       7.72       8.11
C       4.92       8.90       2.49
H       5.92       9.53       9.66
C       5.24       8.50       3.77
H       4.14      12.42       6.99
C       3.04       8.44       3.50
H       3.52      10.59       5.44
C       3.89       7.89       5.80
H       6.01      11.89      10.22
C       4.34       9.03       6.69
H       5.71      13.10       8.95
C       5.04       8.75       7.86
H       3.80      10.99      11.52
C       5.39       9.78       8.74
H       1.41      12.32      12.00
C       5.06      11.10       8.44
H       3.53      14.35       8.94
