40

H      -0.41       1.83       8.43
C      -4.26       1.36       8.25
C      -2.04       2.51      13.96
C      -3.54       1.72       7.11
C      -3.36       2.91      14.57
C      -2.15       1.89       7.17
C      -1.49       1.69       8.39
C      -3.31       3.86      15.60
C      -2.21       1.32       9.52
C      -4.46       4.24      16.30
C      -1.37       2.29       5.97
C      -5.70       3.69      15.94
C      -5.75       2.74      14.91
C      -1.46       1.01      10.77
H      -2.35       4.31      15.87
C      -4.60       2.34      14.21
H      -6.60       4.00      16.47
O      -1.30       3.44      13.53
C      -4.31       5.19      17.43
H      -6.72       2.33      14.62
O      -1.74       1.27      13.99
C      -4.74       1.39      13.08
H      -5.86      -0.08      14.18
O      -3.16       5.34      17.93
C      -5.45       0.19      13.21
H      -6.18      -1.58      12.24
O      -5.33       5.83      17.88
C      -5.62      -0.66      12.12
O      -1.97       2.64       4.90
H      -5.19      -1.01      10.03
C      -5.08      -0.33      10.88
O      -0.08       2.29       6.04
H      -3.62       2.64      11.70
H      -4.04       1.90       6.16
C      -4.33       0.84      10.73
H      -5.35       1.26       8.21
O      -0.63       1.85      11.26
C      -4.18       1.70      11.83
O      -1.60      -0.12      11.34
C      -3.61       1.16       9.47
