26

H       0.98       8.41       7.21
H       0.98      16.24       7.03
H       3.12      14.35       3.82
H       3.03      12.20       5.04
O       2.95       7.75      10.51
H       3.12      10.31      10.42
O       1.06       7.13       9.41
H       3.02      12.46       9.20
O       2.95      16.91       3.73
O       1.06      17.52       4.83
C       2.01       7.95       9.66
C       2.01      16.71       4.58
C       2.03       9.23       8.91
C       2.03      15.43       5.33
C       1.45       9.30       7.64
C       1.49      10.49       6.92
C       1.45      15.36       6.60
C       1.49      14.17       7.32
C       2.63      14.29       4.79
C       2.58      13.08       5.48
C       2.63      10.37       9.45
C       2.58      11.57       8.76
C       2.01      11.68       7.47
C       2.01      12.98       6.77
Cl       0.84      10.43       5.30
Cl       0.84      14.23       8.93
