30

H       8.62       7.91       2.19
H       4.79       9.80      -2.30
H       8.57       7.77       4.69
H       4.97       9.66      -4.79
H       4.71       9.73       2.27
H       8.74       8.12      -1.98
O       8.10       8.82      -6.85
O       5.53       8.25       6.95
O       5.84       8.71      -6.89
O       7.78       8.52       6.95
H       3.83      10.06       4.27
H       9.77       7.67      -3.86
C       6.96       8.78      -6.29
C       6.64       8.46       6.37
C       7.76       8.27       2.76
C       5.68       9.40      -2.77
C       7.73       8.19       4.14
C       5.78       9.32      -4.15
C       6.62       8.62       4.89
C       6.93       8.83      -4.80
C       5.52       9.18       4.19
C       8.02       8.41      -3.99
C       5.56       9.29       2.80
C       7.92       8.47      -2.60
C       6.66       8.83       2.07
C       6.76       8.96      -1.98
C       6.67       8.92       0.66
C       6.69       8.97      -0.56
O       9.16       7.94      -4.57
O       4.44       9.64       4.90
