60

C      -7.50       2.61      12.13
H      -7.34       3.67       2.54
H      -6.85       4.62       3.97
H      -5.51       2.06       2.92
H      -4.85       3.06       4.23
H      -6.94       2.72       5.59
H      -6.17       1.17       5.19
H      -7.62       1.69       4.31
C      -3.47       6.93       4.06
C      -8.77       2.01      12.36
H      -5.88       5.71      13.95
H      -6.53       5.10      12.40
H      -3.63       4.83      13.34
H      -4.27       4.20      11.82
H      -4.86       6.52      11.06
H      -3.14       6.42      11.45
H      -4.26       7.19      12.59
C      -6.48       3.96       3.17
C      -5.78       2.74       3.74
C      -6.68       2.04       4.76
C      -5.76       4.95      13.16
C      -4.38       5.01      12.55
C      -4.14       6.36      11.88
C      -3.53       8.35       5.99
C      -4.05       9.65       5.41
C      -4.66      10.55       6.50
C      -9.32       1.30      10.12
C      -9.69       2.53       9.32
C      -9.32       2.35       7.85
H      -2.81       8.53       6.79
H      -4.35       7.73       6.39
H      -3.22      10.18       4.92
H      -4.80       9.44       4.63
H      -5.49      10.05       7.02
H      -5.04      11.48       6.07
H      -3.90      10.82       7.25
H      -9.91       0.43       9.80
H      -8.25       1.06      10.03
N      -3.11       7.05       2.78
N      -9.08       2.05      13.68
H     -10.77       2.71       9.42
H      -9.17       3.41       9.73
H      -8.24       2.19       7.72
N      -3.89       6.20       2.02
N      -8.03       2.67      14.34
H      -9.59       3.24       7.26
H      -9.85       1.49       7.42
O      -2.77       7.57       5.01
O      -9.65       1.44      11.53
O      -5.63       4.72       2.28
O      -5.98       3.65      13.81
C      -4.98       5.43       5.39
C      -6.86       2.93      10.94
C      -4.74       5.56       2.84
C      -7.10       3.01      13.44
C      -5.29       4.96       6.49
C      -6.37       3.36       9.89
C      -5.62       4.41       7.66
C      -5.94       3.88       8.74
C      -4.51       5.95       4.19
