28

C       8.49      11.40      31.80
C       8.46      24.16      31.78
C       8.47      12.90      31.84
C       7.26      13.61      32.03
C       7.22      14.99      32.03
C       8.38      15.77      31.85
C       9.59      15.06      31.68
C       9.63      13.67      31.68
C       8.34      17.17      31.83
C       8.32      18.39      31.81
C       8.34      19.79      31.80
C       7.18      20.56      31.60
C       7.22      21.95      31.60
C       8.42      22.66      31.78
C       9.58      21.89      31.97
C       9.55      20.50      31.98
F       6.10      12.96      32.24
F      10.83      13.10      31.48
F      10.73      15.76      31.51
F       6.04      15.62      32.21
F       6.00      19.93      31.42
F      10.69      19.81      32.18
F      10.78      22.47      32.19
F       6.05      22.59      31.37
O       7.43      10.83      31.39
O       9.57      10.83      32.15
O       9.55      24.70      31.43
O       7.40      24.76      32.14
