50

N      12.92      15.27       1.75
N       5.44      21.44      -1.75
N       5.44      21.44       1.75
N      12.92      15.26      -1.75
O      10.27      18.66      -5.62
O      10.27      18.67       5.62
O       8.08      18.04      -5.62
O       8.08      18.04       5.62
H       8.09      21.73       3.49
H       8.42      20.78       4.98
H       6.77      21.41       4.65
H       9.94      15.92      -4.98
H      10.26      14.97      -3.49
H      11.59      15.29      -4.65
O       7.27      19.81       3.51
O      11.09      16.89      -3.51
H      10.26      14.98       3.48
H       9.94      15.92       4.98
O      11.09      16.90       3.51
O       7.26      19.80      -3.51
H       8.42      20.78      -4.98
H       8.09      21.73      -3.48
H       6.76      21.41      -4.65
H      11.59      15.30       4.65
C       8.20      19.12      -1.43
C       8.21      19.12       1.43
C      10.15      17.58      -1.43
C      10.15      17.59       1.43
C       8.23      19.11       2.85
C      10.13      17.60      -2.85
C       9.18      18.35       0.71
C       9.18      18.35      -0.71
C      12.10      16.00       1.34
C       6.26      20.71      -1.34
C       6.26      20.72       1.34
C      12.09      15.99      -1.34
C      10.13      17.60       2.85
C       7.68      21.01       4.20
C      10.68      15.70      -4.20
C      10.68      15.70       4.20
C       8.22      19.10      -2.85
C       7.67      21.00      -4.20
C       9.18      18.36       3.55
C       9.17      18.35      -3.55
C      11.12      16.81       0.70
C       7.24      19.89      -0.70
C       7.24      19.89       0.70
C      11.12      16.81      -0.70
C       9.18      18.36       5.05
C       9.18      18.35      -5.05
