13

O       3.70       5.08       9.23
H       4.22       2.09      13.09
O       7.27       2.54      13.28
O       5.84       5.02       9.99
H       3.92       2.61      10.18
C       5.10       1.94      12.44
H       4.92       1.05      11.80
C       4.23       3.45      10.83
H       3.37       3.73      11.47
C       6.31       1.69      13.32
C       4.62       4.62       9.95
O       5.34       3.08      11.64
O       6.25       0.66      14.04
