34

H       2.28      20.20      16.18
H       2.28      16.51      19.15
H       2.17      16.31      14.20
H       2.36      18.49      15.29
H       2.17      20.41      21.13
H       2.36      18.23      20.04
H      -0.00      23.67      17.35
H      -0.00      13.04      17.98
C       2.07      22.84      20.04
C       2.07      13.87      15.29
C       2.17      21.54      19.30
C       2.17      15.17      16.03
C       2.22      21.45      17.90
C       2.31      20.21      17.27
C       2.22      15.27      17.43
C       2.31      16.51      18.06
C       2.23      16.36      15.28
C       2.33      17.59      15.92
C       2.23      20.36      20.05
C       2.33      19.12      19.41
C       2.37      19.02      18.01
C       2.37      17.70      17.32
S       1.91      22.84      16.83
S       1.91      13.87      18.50
O       1.03      22.99      20.75
O       3.05      23.64      19.91
O       1.03      13.72      14.58
O       3.05      13.07      15.42
O       3.11      23.65      16.63
O       1.27      22.35      15.65
O       0.99      23.73      17.70
O       3.11      13.07      18.70
O       1.27      14.37      19.68
O       0.99      12.98      17.63
