30

H      15.02       9.92       2.82
H      14.07       7.78       3.60
H      11.02       8.05       0.55
H      12.01      10.21      -0.22
H      10.93       6.23       2.07
H      13.36       5.91       3.94
H      13.18       4.42       5.68
H      12.01       2.57       6.88
H       9.11       2.32       3.72
H      10.25       4.16       2.51
O      13.59      12.09      -0.17
O      15.16      11.94       1.46
O      10.22       1.01       7.33
O       8.59       0.96       5.74
C      14.16      11.51       0.81
C      13.58      10.20       1.25
C      14.15       9.49       2.32
C      13.62       8.29       2.74
C      12.49       7.73       2.11
C      11.91       8.45       1.04
C      12.45       9.66       0.61
C      11.89       6.47       2.53
C      12.40       5.64       3.47
C      11.78       4.45       4.03
C      12.29       3.95       5.24
C      11.64       2.93       5.92
C      10.48       2.36       5.40
C      10.00       2.79       4.15
C      10.64       3.83       3.47
C       9.71       1.36       6.21
