37

C       0.76      11.06      16.00
C       0.66      10.00      14.91
H       0.47      10.07      18.92
H      -0.08      11.97      17.71
O      -0.81      14.25      13.13
H      -3.64      11.76      17.68
O      -0.29       6.40      22.13
H      -2.24      12.69      18.20
O      -3.09      14.24      13.11
H      -1.75      11.14      19.89
O      -2.57       6.41      22.15
H      -3.30      10.37      19.53
H      -1.77       9.43      15.41
O      -1.97       7.54      16.99
H      -3.38      10.00      15.82
H       0.28       8.99      17.56
H      -3.43       8.68      17.75
H       0.59       8.97      15.31
H      -0.20      10.17      14.25
H       1.56      10.03      14.27
H       0.76      12.05      15.52
H       1.73      10.97      16.50
H      -1.07       7.62      16.61
C      -1.43       6.76      21.70
C      -1.95      13.89      13.57
C      -0.29      11.06      17.12
C      -2.57      11.69      17.93
C      -2.34      10.69      19.08
C      -1.45       7.69      20.59
C      -1.78      11.22      16.67
C      -0.19       9.85      18.06
C      -1.58       9.43      18.58
C      -2.40       8.84      17.39
C      -2.37       9.85      16.23
C      -1.49       8.46      19.66
C      -1.90      12.18      15.60
C      -1.95      12.97      14.68
