20

N      16.40       3.98       2.89
N      11.98       1.22       5.23
H      14.40       2.87       1.60
H      13.84       2.53       6.52
C      16.03       3.93       5.89
O      15.86       3.66       7.12
O      16.91       4.70       5.39
C      12.19       1.51       2.23
O      11.10       1.08       2.72
O      12.52       1.52       1.00
C      15.08       3.28       4.93
C      13.19       2.09       3.19
O      12.09      -0.01       5.20
O      17.44       3.33       2.89
C      14.29       2.79       2.68
C      13.97       2.59       5.44
O      16.21       5.07       2.34
C      15.22       3.35       3.54
C      13.06       1.99       4.58
O      11.10       1.86       5.81
