13

C       7.61       1.35       6.00
C       8.86       1.65       5.20
O       8.48       2.48       4.11
O       7.94       4.39       2.47
O       9.87       4.11       1.31
H      10.43       2.65       3.37
H       9.30       1.67       2.36
H       9.31       0.71       4.84
H       9.59       2.17       5.85
O       6.56       1.99       5.74
O       7.77       0.45       6.90
C       9.02       3.80       2.21
C       9.39       2.56       3.01
