22

H       4.96       9.05      12.02
H       1.70       7.13       7.92
H       0.94      10.39      11.36
H       5.72       5.76       8.58
H       5.93       7.26      10.56
H       0.74       8.91       9.36
C       3.03      10.66      13.01
C       3.61       5.49       6.94
C       2.97       9.79      11.80
C       3.69       6.37       8.13
C       5.01       7.25       9.97
C       1.65       8.93       9.95
C       4.90       6.41       8.88
C       1.76       9.75      11.05
C       2.62       7.17       8.49
C       4.04       9.00      11.44
C       2.73       8.07       9.58
C       3.95       8.11      10.34
O       1.90      11.00      13.49
O       4.72       5.12       6.44
O       4.17      10.97      13.48
O       2.45       5.18       6.48
