29

C       3.43      13.86       8.13
C       2.17      14.71       8.38
H      -1.88      18.36       8.13
C       1.85      14.82       9.89
H       1.76      19.62       6.62
C       1.42      13.48      10.50
H       2.34      17.31       5.85
C       0.84      15.93      10.19
H      -1.47      16.00       7.43
N      -0.07      19.07       7.43
H       0.01      14.53       5.76
N       1.04      14.23       7.56
H       1.74      14.94       5.70
H       2.45      15.73       8.06
O       3.38      12.87       7.34
H       2.80      15.10      10.36
O       4.46      14.25       8.75
H       1.30      13.60      11.58
H       2.16      12.69      10.32
H       0.47      13.12      10.08
H      -0.17      15.70       9.82
H       1.16      16.89       9.75
H       0.79      16.07      11.28
C      -0.96      18.07       7.64
C       1.08      18.78       6.77
C       1.39      17.49       6.35
C       0.49      16.45       6.61
C      -0.71      16.77       7.24
C       0.83      15.01       6.31
