22

C       9.28      18.13       1.15
H       8.49      21.26       0.17
C      10.72      18.34      -1.15
C      10.89      17.24      -0.29
C       9.11      19.22       0.29
C      11.88      16.15      -0.57
C       8.12      20.31       0.57
H       8.62      16.98       2.84
N      10.17      17.17       0.85
H      11.39      19.48      -2.84
N       9.83      19.30      -0.85
H       7.43      18.18       2.26
H      12.57      18.28      -2.26
H       8.85      18.71       3.18
C       8.50      17.99       2.42
H      11.15      17.75      -3.18
C      11.50      18.47      -2.42
H      12.84      16.38      -0.09
H       7.16      20.08       0.09
H      12.05      16.03      -1.65
H       7.96      20.43       1.65
H      11.51      15.20      -0.17
