28

C       2.60      33.39      11.24
Cl       3.17      25.33       3.38
Cl       1.49      22.90       7.86
Cl       1.57      25.56       9.41
Cl       3.18      28.20      11.43
Cl       3.43      31.00      12.86
Cl       1.51      30.68       6.92
Cl       1.74      33.43       8.37
C       2.32      22.95       5.00
O       1.66      33.62      12.06
Cl       3.34      28.05       4.90
O       3.57      34.17      10.97
O       1.36      22.72       4.20
O       3.27      22.15       5.27
C       2.33      24.27       5.71
C       1.98      24.34       7.07
C       2.02      25.56       7.77
C       2.46      26.73       7.10
C       2.82      26.65       5.72
C       2.74      25.43       5.03
C       2.78      29.64      10.60
C       2.36      29.57       9.26
C       2.06      30.74       8.54
C       2.15      31.99       9.20
C       2.56      32.06      10.53
C       2.89      30.89      11.23
N       2.71      28.00       7.67
N       2.10      28.27       8.74
