26

H       1.85       6.98       9.23
H       6.04       6.98       9.23
H       1.85       6.98      18.69
H       6.04       6.98      18.69
H       6.20       6.98      12.78
H       1.69       6.98      12.78
H       6.20       6.98      15.14
H       1.69       6.98      15.14
C       2.78       6.98       9.81
C       2.74       6.98      11.20
C       3.95       6.98      11.94
C       5.16       6.98      11.20
C       5.12       6.98       9.81
C       3.95       6.98      13.35
C       3.95       6.98      14.58
C       3.95       6.98      15.99
C       2.74       6.98      16.72
C       2.78       6.98      18.11
C       5.12       6.98      18.11
C       5.16       6.98      16.72
N       3.95       6.98       9.15
N       3.95       6.98      18.77
O       6.36       6.98      11.82
O       1.53       6.98      11.82
O       6.36       6.98      16.10
O       1.53       6.98      16.10
