16

N      -2.79      15.55       8.96
N      -2.66      14.54       8.09
N      -3.69      14.50       7.26
H      -7.36      17.32       7.30
C      -5.78      15.91       7.06
C      -6.55      18.87       9.34
H      -4.15      17.78      10.17
C      -4.54      15.52       7.59
C      -3.96      16.19       8.69
C      -4.59      17.29       9.29
C      -5.81      17.70       8.76
C      -6.39      17.00       7.66
H      -6.25      15.36       6.24
H      -6.01      19.31      10.19
H      -6.71      19.65       8.59
H      -7.55      18.57       9.69
