16

C       5.78       5.10      10.24
O       7.39       4.54       8.56
C       4.74       7.28      10.40
C       5.55       6.38       9.71
C       4.44       5.66      12.18
C       5.24       4.75      11.48
C       6.61       4.12       9.48
O       6.55       2.88       9.77
C       4.18       6.91      11.64
C       4.48       8.64       9.84
O       5.21       9.03       8.88
O       3.54       9.33      10.36
H       5.99       6.67       8.76
H       3.56       7.64      12.16
H       4.02       5.38      13.14
H       5.45       3.77      11.90
