54

C      15.15       5.54       6.97
C      15.22       4.73       8.12
C      14.15       3.83       7.95
C      20.24       5.03      14.43
C      21.30       4.11      14.33
H      21.89      10.24      18.57
C      21.43       3.25      13.23
H      18.46       8.32      20.41
C      19.25       5.02      13.43
C      19.34       4.16      12.32
C      20.45       3.30      12.22
H      26.75      -0.70      11.22
H      24.96      -2.52      14.72
C      20.21       7.77      18.05
C      21.24       7.53      17.19
C      21.25       6.53      16.15
C      20.18       6.03      15.49
H      15.78       6.37       6.68
H      13.84       3.00       8.58
H      22.04       4.07      15.13
H      20.51       2.62      11.38
H      18.42       5.72      13.49
H      22.15       8.11      17.31
H      22.25       6.19      15.83
H      19.33       7.12      18.01
H      19.19       6.46      15.69
C      22.55       2.31      13.17
C      23.02       1.72      12.05
C      24.06       0.71      12.00
C      24.34      -0.17      13.00
C      16.17       4.81       9.20
C      15.98       4.34      10.46
C      16.98       4.34      11.50
H      23.05       2.11      14.13
N      19.61      10.04      20.86
N      20.70      10.64      20.27
C      18.30       4.12      11.29
H      22.62       2.03      11.08
H      24.63       0.64      11.07
H      23.70      -0.18      13.88
N      26.64      -2.96      13.52
N      27.20      -2.39      12.41
H      14.98       3.97      10.73
H      16.64       4.48      12.53
H      17.12       5.31       8.98
H      18.63       3.82      10.29
C      21.06       9.92      19.19
C      20.19       8.82      19.05
C      19.30       8.95      20.13
N      14.12       5.15       6.19
N      13.51       4.08       6.80
C      26.47      -1.31      12.07
C      25.39      -1.16      12.97
C      25.56      -2.24      13.87
