26

Cl      10.59      18.27       2.74
Cl       8.64      20.21      -2.74
O       7.38      21.57       4.86
O      11.94      17.00      -4.86
O      13.08      15.87      -3.24
H       8.98      19.93       3.99
H      10.31      18.61      -3.99
O       6.25      22.71       3.24
H      12.42      16.49      -0.92
H       6.86      22.05       0.92
H       8.07      20.79      -0.75
H      11.17      17.69       0.75
C       7.11      21.85       3.64
C      12.22      16.73      -3.64
C       7.84      21.09       2.59
C      11.46      17.46      -2.59
C       8.78      20.13       2.93
C       9.48      19.40       1.97
C      10.50      18.41      -2.93
C       9.77      19.11      -1.97
C      11.68      17.22      -1.23
C      10.95      17.92      -0.28
C       7.60      21.31       1.23
C       8.29      20.58       0.28
C       9.27      19.59       0.56
C       9.97      18.90      -0.56
