32

H       6.14       9.70       4.69
H       6.12       9.81       2.23
H       6.07       5.47       2.13
H       6.04       5.42       4.53
H       6.09      10.92      -2.08
H       6.14       6.58      -2.17
H       6.16       6.68      -4.63
H       6.07      10.96      -4.49
H       6.08       5.74       0.56
H       6.13      10.66      -0.50
C       6.07       7.50       6.27
C       6.11       8.88      -6.22
C       6.08       7.56       4.78
C       6.11       8.78       4.10
C       6.11       8.85       2.72
C       6.09       7.67       1.92
C       6.08       6.44       2.63
C       6.06       6.38       4.02
C       6.10       7.66       0.46
C       6.11       8.74      -0.40
C       6.10       9.95      -2.58
C       6.12       8.73      -1.87
C       6.13       7.55      -2.66
C       6.14       7.60      -4.04
C       6.12       8.83      -4.73
C       6.10      10.01      -3.97
O       5.86       6.36       6.81
O       6.29       8.59       6.89
O       5.84      10.00      -6.76
O       6.37       7.80      -6.84
O       6.10       6.41      -0.14
O       6.11       9.99       0.20
