26

H      23.23      23.28      17.99
H      23.76      23.78      19.61
H      22.18      25.50      19.55
H      21.62      24.95      17.97
H      21.22      24.53      21.65
H      19.89      23.37      21.58
H      22.72      22.74      21.67
O      24.33      21.31      20.41
H      21.36      21.59      17.76
H      20.63      20.86      19.18
H      19.05      22.57      19.29
H      19.72      23.26      17.82
O      23.19      20.13      18.84
H      21.39      21.60      21.50
O      18.44      25.11      18.98
O      19.78      26.28      20.38
C      23.34      21.12      19.62
C      19.50      25.26      19.67
C      22.88      23.49      19.01
C      21.82      24.62      19.00
C      20.51      24.13      19.64
C      20.82      23.68      21.09
C      21.83      22.50      21.07
C      22.27      22.20      19.62
C      21.04      21.80      18.79
C      19.98      22.93      18.84
