38

H      -1.39      -7.95      16.91
H      -3.02      -6.90      15.37
H       0.20      -4.70      13.51
H       1.82      -5.74      15.09
H      -1.53      -3.19      13.38
H      -4.72      -3.62      10.54
H      -3.64      -6.92      13.11
H      -4.27      -8.04      11.38
H      -6.07      -9.50      10.57
H      -1.52      -6.09      10.08
H      -6.84      -4.60      10.88
O       0.90      -8.59      17.71
O       2.52      -7.26      16.94
O      -1.83      -1.25      11.94
O      -3.64      -1.29      10.66
O      -1.20     -10.04       9.61
O      -2.51      -8.26       9.29
C       1.30      -7.61      16.95
C       0.32      -6.94      16.07
C      -1.05      -7.25      16.14
C      -1.96      -6.67      15.27
C      -1.52      -5.74      14.31
C      -0.15      -5.40      14.26
C       0.76      -5.99      15.13
C      -2.45      -5.14      13.33
C      -2.29      -3.82      12.92
C      -3.12      -3.26      11.94
C      -4.14      -4.04      11.36
C      -4.35      -5.36      11.79
C      -3.50      -5.89      12.77
C      -5.42      -6.21      11.23
C      -5.23      -7.60      11.13
C      -6.25      -8.43      10.66
C      -7.48      -7.89      10.27
C      -7.68      -6.50      10.37
C      -6.66      -5.68      10.83
C      -1.41      -8.77       9.70
C      -2.86      -1.86      11.50
