19

C      19.22      18.60      27.55
C      21.12      19.66      29.31
C      19.12      19.96      27.93
C      21.21      18.32      28.92
C      20.09      20.46      28.81
C      20.26      17.80      28.05
C      18.06      20.91      27.43
H      22.01      17.70      29.31
H      20.05      21.50      29.11
H      20.31      16.76      27.73
H      17.06      20.61      27.77
H      18.01      20.92      26.33
H      18.27      21.92      27.79
C      18.25      17.92      26.63
O      18.61      16.79      26.16
C      22.13      20.23      30.25
O      17.15      18.51      26.37
O      21.95      21.43      30.65
O      23.10      19.47      30.58
