26

H      23.26      23.30      18.14
H      23.57      23.78      19.81
H      22.03      25.52      19.46
H      21.51      24.82      17.92
H      21.18      24.50      21.60
H      19.76      23.46      21.60
H      22.45      22.53      21.74
H      21.05      21.53      21.38
H      21.30      21.74      17.67
H      20.55      20.83      18.98
H      18.96      22.51      19.34
H      19.51      23.24      17.84
O      24.15      21.26      20.46
O      23.09      20.14      18.78
O      18.31      25.11      18.97
O      19.70      26.29      20.34
C      23.20      21.10      19.62
C      19.39      25.26      19.65
C      22.78      23.49      19.11
C      21.70      24.59      18.97
C      20.38      24.11      19.62
C      20.70      23.67      21.07
C      21.60      22.42      21.05
C      22.13      22.17      19.62
C      20.94      21.82      18.70
C      19.85      22.91      18.83
