16

H      14.53      17.03       4.50
H      12.06      17.51       4.33
H      15.02      20.49       7.00
O      17.01      19.27       6.67
O      16.91      17.58       5.15
H      12.56      20.96       6.85
O      10.02      18.91       4.66
O      10.26      20.39       6.37
C      16.38      18.50       5.87
C      14.91      18.73       5.77
C      14.08      17.89       5.01
C      12.72      18.16       4.92
C      14.36      19.84       6.43
C      13.00      20.10       6.34
C      10.70      19.54       5.53
C      12.17      19.26       5.59
