20

H      23.35       2.66      20.50
H      20.34       6.96      19.46
H      21.24       7.55      20.88
H      23.05       8.43      19.36
H      22.16       7.83      17.94
Br      25.70       2.91      18.95
C      25.27       6.09      17.83
C      21.11       3.90      21.37
O      26.30       5.41      17.54
O      25.01       7.27      17.42
O      21.27       2.72      21.81
O      20.12       4.68      21.61
C      22.16       4.46      20.47
C      24.25       5.48      18.74
C      22.12       5.75      19.95
C      24.29       4.16      19.28
C      23.13       6.23      19.12
C      23.28       3.68      20.11
C      21.33       7.04      19.91
C      22.47       7.59      18.96
