16

H       7.07       0.78      13.71
H       2.85      -1.72      14.55
H       7.06      -1.73      13.66
H       2.85       0.80      14.51
O       3.85       2.99      13.89
O       6.04      -3.94      13.82
O       3.84      -3.93      14.36
C       4.94      -3.34      14.10
C       4.96       2.41      14.10
O       6.08       2.99      14.30
C       6.16       0.22      13.88
C       3.76      -1.16      14.35
C       6.15      -1.17      13.86
C       3.77       0.23      14.34
C       4.95      -1.86      14.11
C       4.96       0.92      14.11
