25

H       4.53      10.17       1.08
H       4.76       8.09       2.41
H       5.20       3.44       1.33
H       4.49      10.06      -1.42
H       5.18       2.12      -0.62
H       4.28       2.78      -2.01
H       6.05       2.86      -1.99
H       4.68       7.90      -2.58
C       4.97       5.40      -2.90
C       4.71       7.94      -1.49
C       4.60       9.15      -0.84
C       4.62       9.20       0.58
C       4.75       8.05       1.32
C       4.87       6.78       0.68
C       4.85       6.72      -0.75
C       4.97       5.46      -1.40
C       5.08       4.28      -0.67
C       5.11       4.36       0.75
C       5.01       5.57       1.41
C       5.02       5.59       2.91
C       5.15       2.94      -1.35
O       3.84       5.34      -3.47
O       6.10       5.41      -3.47
O       3.89       5.64       3.48
O       6.17       5.57       3.47
