20

H      -2.90       6.53       4.33
H      -1.54       5.16       5.88
H       2.89       7.50       3.98
H       2.83       6.05       2.93
H       1.52       8.76       2.29
H       1.43       7.31       1.26
C      -2.02       7.99       2.16
C       1.24       5.05       5.99
C       0.16       7.18       3.07
C      -1.23       7.24       3.16
C      -1.82       6.51       4.21
C      -1.05       5.74       5.09
C       0.36       5.72       5.01
C       0.93       6.47       3.99
C       2.24       6.88       3.34
C       1.37       7.67       2.29
O       0.90       3.91       6.50
O      -1.60       7.93       0.96
O      -3.06       8.65       2.55
O       2.32       5.66       6.27
