21

H       6.63       6.61       0.09
H      10.34       9.24       1.33
H       9.04      10.45       1.33
H       9.90      11.38      -0.84
H      11.16      11.43       0.42
H      11.21      10.17      -0.84
C       7.34       7.37      -1.80
C       7.81       7.88       4.45
C       7.41       7.52      -4.44
C       7.98       8.06       1.80
C       7.90       8.00       3.01
C       8.07       8.13       0.39
C       7.30       7.32      -0.41
C       9.71       9.87       0.69
C      10.54      10.77      -0.20
C       7.37       7.43      -3.02
O       8.66       7.10       4.98
O       6.59       6.77      -5.09
O       6.90       8.57       5.02
O       8.27       8.34      -4.94
O       8.92       9.02      -0.18
