16

C      -0.14       4.14       6.83
H       3.52       3.18       6.12
H      -1.18       4.41       7.03
O      -0.22       0.88       8.42
C      -0.63       2.02       7.99
O       2.56       6.71       4.73
C       2.97       5.57       5.16
O      -1.83       2.42       8.19
C       0.32       2.89       7.26
O       4.17       5.17       4.96
C       2.02       4.70       5.89
O       2.24       1.35       7.36
C       1.68       2.52       6.99
O       0.11       6.24       5.79
C       0.66       5.07       6.16
C       2.48       3.45       6.32
