10

C       6.38       6.39      14.80
C       6.47      10.71      19.89
C       6.44       9.78      18.78
C       6.38       7.32      15.89
C       6.42       8.98      17.86
C       6.40       8.11      16.83
O       5.35      10.96      20.44
O       7.52       5.99      14.40
O       5.24       6.07      14.33
O       7.61      11.16      20.22
