40

H      11.29       9.72       1.72
H      10.46       9.86       0.15
H      12.47       7.68       0.96
H      11.60       7.69      -0.57
H      12.62       9.93      -1.16
H      13.89       8.73      -0.83
H      13.48       9.95       0.39
H       3.60       9.70      -1.72
H       4.43       9.85      -0.15
H       2.43       7.67      -0.96
H       3.29       7.68       0.57
H       2.26       9.93       1.15
H       1.00       8.73       0.83
H       1.41       9.94      -0.40
H       9.57       8.19      -1.29
H       5.32       8.19       1.29
C       7.44       8.08      -5.48
C       7.46       8.14       4.04
C       7.45       8.10       5.49
C       7.47       8.20       1.41
C       8.68       8.25       0.68
C       6.21       8.24      -0.68
C      10.89       9.14       0.86
C      12.01       8.34       0.21
C      13.06       9.29      -0.38
C       4.00       9.13      -0.87
C       2.88       8.34      -0.21
C       7.43       8.20      -1.41
C       1.83       9.28       0.37
C       6.25       8.21       0.71
C       8.65       8.21      -0.71
C       7.47       8.17       2.82
C       7.42       8.17      -2.82
C       7.43       8.13      -4.04
O       8.58       8.05      -6.05
O       5.05       8.32      -1.41
O       6.31       8.07       6.05
O       6.30       8.07      -6.05
O       8.60       8.09       6.05
O       9.84       8.33       1.41
