24

N       6.99       1.24      19.35
N       9.10      -0.40      16.80
N       2.79       3.21      21.36
O       5.26       0.44      18.03
C       3.87       2.68      21.95
C       4.86       1.99      21.25
C       4.70       1.83      19.87
C       5.67       1.10      18.99
H       7.24       1.84      20.16
C       8.10       0.74      18.66
C       3.56       2.36      19.26
H       5.72       1.60      21.78
H       3.41       2.24      18.19
C       2.64       3.05      20.04
H       1.74       3.49      19.61
H       3.95       2.82      23.03
C      10.32      -0.16      17.30
C      10.49       0.51      18.51
H       9.47       1.51      20.14
C       9.37       0.97      19.20
H       7.04      -0.17      16.99
C       8.00       0.03      17.44
H      11.16      -0.54      16.73
H      11.49       0.67      18.91
