14

O       5.67       1.73      10.98
C       4.62       1.00      11.09
O       3.69      -2.10       5.43
C       4.87      -1.59       5.35
H       3.56      -1.10       7.63
C       5.29      -0.73       6.50
O       3.90       0.93      12.15
C       4.92       0.15       8.77
C       4.19       0.23       9.91
O       5.70      -1.77       4.41
H       5.88       0.67       8.75
H       6.27      -0.25       6.41
C       4.53      -0.59       7.61
H       3.23      -0.29      10.00
