30

C      14.46       3.18      20.53
C      12.02       2.78      20.08
C      11.75       2.77      21.61
C      12.27       3.51      24.96
C      13.21       3.71      19.77
C      14.20       3.16      22.05
C      12.78       3.68      22.35
C      12.65       5.12      21.81
C      12.86       5.14      20.29
C      12.51       3.62      23.77
C      13.52       3.79      18.36
C      13.87       3.97      17.21
C      11.85       3.19      26.29
O      12.21       2.06      26.75
O      11.09       4.04      26.90
O      14.19       5.55      15.57
H      14.31       2.15      22.46
H      14.69       2.17      20.15
H      11.14       3.12      19.53
H      12.26       1.76      19.72
H      11.82       1.76      22.03
O      15.24       3.54      15.39
H      10.74       3.15      21.83
H      13.67       5.82      20.01
H      11.96       5.48      19.76
H      13.39       5.75      22.32
H      15.31       3.82      20.28
H      14.93       3.80      22.58
H      11.66       5.52      22.09
C      14.45       4.38      15.97
