26

C       3.45       4.77       1.26
C       4.47       3.61       1.30
C       5.32       3.61       0.01
C       6.06       4.97      -0.08
C       5.04       6.13      -0.11
C       3.60       5.57      -0.06
C       3.38       4.63      -1.25
C       4.40       3.46      -1.21
O       2.77       7.63       0.81
O       1.58       6.60      -0.81
H       2.42       4.38       1.33
H       3.60       5.45       2.11
H       5.13       3.70       2.17
H       3.95       2.64       1.39
O       7.23       2.61       1.00
O       6.20       1.50      -0.70
H       6.74       5.06       0.78
H       6.69       4.98      -0.99
H       5.19       6.82       0.73
H       5.16       6.72      -1.03
H       5.00       3.42      -2.12
H       3.88       2.49      -1.15
H       2.35       4.25      -1.24
H       3.48       5.20      -2.19
C       2.58       6.69      -0.03
C       6.33       2.49       0.10
