58

C       1.80       3.95       1.09
C       3.13       4.20       0.75
H       4.23       8.20       3.61
C       7.26       5.70      -0.17
C       7.92       6.90       0.15
C       9.24       7.11      -0.23
C       9.31       4.92      -1.23
C       7.98       4.71      -0.87
C       9.94       6.12      -0.92
H       5.16       8.69      -3.84
H       4.65       7.78      -1.57
N       7.14       4.86       4.93
H       4.22       7.35       1.27
N       7.06       3.91       2.42
N       5.78       3.52      -2.87
N       6.67       4.56      -5.24
O       6.47       6.90       6.54
O       5.47       7.67      -6.74
O       4.72       8.20       5.98
O       7.60       7.61      -5.96
H       7.34       3.91      -4.84
H       7.01       4.97      -6.11
H       7.02       3.85       4.91
H       7.10       5.27       5.86
H       2.63       6.16      -1.98
H       0.26       5.74      -1.36
H      -0.28       4.32       0.61
H       1.56       3.30       1.94
H       3.93       3.76       1.34
H       7.37       7.67       0.69
H       9.72       8.06       0.01
H      10.99       6.29      -1.21
H       9.85       4.13      -1.76
H       7.48       3.78      -1.14
H       7.26       3.76       1.43
H       7.89       3.82       2.99
H       5.66       2.97      -3.72
H       5.21       3.16      -2.11
C       5.60       7.32       5.69
C       6.35       7.40      -5.86
C       5.60       6.72       4.34
C       5.88       6.80      -4.57
C       4.81       7.32       3.34
C       5.31       7.64      -3.61
C       4.80       6.84       2.05
C       5.01       7.13      -2.36
C       5.60       5.74       1.69
C       5.16       5.76      -2.08
C       6.32       5.06       2.69
C       5.63       4.90      -3.08
C       6.33       5.55       4.03
C       6.09       5.44      -4.32
C       5.84       5.49       0.25
C       4.86       5.33      -0.68
C       3.45       5.02      -0.34
C       2.39       5.54      -1.11
C       1.06       5.30      -0.77
C       0.76       4.51       0.34
