16

C      10.48       4.10      19.16
C      13.25       4.10      19.58
O      13.15       4.33      15.94
O      10.58       4.33      22.80
C      12.39       4.11      20.67
H      10.95       4.12      17.06
C      11.34       4.11      18.07
H      12.78       4.12      21.69
C      10.06       4.19      21.62
C      13.67       4.19      17.12
H       9.40       4.10      19.02
H      14.33       4.10      19.72
O       8.81       4.12      21.43
O      14.92       4.12      17.31
C      11.00       4.13      20.47
C      12.73       4.13      18.27
