48

C       3.88      -1.04       6.98
C       5.07      -1.44       6.36
C       6.11      -2.04       7.08
C       5.94      -2.27       8.45
C       7.37      -2.39       6.40
C       7.84      -1.60       5.33
C       9.02      -1.93       4.68
C       9.76      -3.06       5.06
C       9.30      -3.84       6.13
H       2.19      -3.10      12.75
C       8.13      -3.50       6.80
C      10.99      -3.46       4.32
H       2.48      -2.63      10.37
H       6.65      -1.73      11.07
C       2.88      -0.31       6.17
H       6.32      -2.15      13.50
C       2.66      -0.70       4.83
O       4.76      -2.59      15.64
H       2.82      -0.95       8.86
C       1.91       0.10       3.98
O       3.07      -3.88      14.94
C       1.33       1.29       4.44
H       5.20      -1.25       5.30
C       1.48       1.63       5.79
C       2.24       0.84       6.65
H       6.74      -2.73       9.03
H       7.29      -0.71       5.03
H       9.38      -1.31       3.86
H       9.88      -4.72       6.42
O      11.52      -4.58       4.57
H       7.78      -4.13       7.61
O      11.47      -2.67       3.42
H       3.10      -1.63       4.46
H       1.78      -0.20       2.94
C       0.64       2.22       3.50
H       1.02       2.56       6.15
O       0.49       1.82       2.26
H       2.39       1.15       7.68
O       0.27       3.36       3.87
C       4.02      -3.04      14.71
C       4.23      -2.64      13.29
C       3.16      -2.76      12.39
C       3.33      -2.50      11.04
C       4.59      -2.14      10.54
C       5.66      -2.02      11.44
C       5.48      -2.24      12.81
C       4.76      -1.89       9.10
C       3.73      -1.27       8.35
