13

H       9.89      15.78       1.04
C       9.61      16.72       2.93
N       8.72      16.86       4.92
H       7.24      19.69       3.98
H       7.29      19.01       5.64
N       9.63      16.17       4.15
C      10.48      16.30       1.81
C       7.15      18.77       4.58
N       8.71      17.73       2.89
H      11.29      15.65       2.16
C       8.18      17.80       4.13
H       6.14      18.37       4.42
H      10.89      17.19       1.32
