28

H       9.25       7.59      12.73
H       9.20       7.64      15.24
H      13.46       7.00      15.33
H      13.49       6.96      12.82
H       9.13       8.00      19.60
H       9.10       8.03      22.11
H      13.34       7.40      22.20
H      13.40       7.35      19.69
C      11.18       7.63      23.78
C      11.41       7.36      11.15
C      11.38       7.29      12.64
C      10.16       7.46      13.32
C      10.13       7.48      14.70
C      11.33       7.34      15.45
C      12.54       7.13      14.75
C      12.56       7.11      13.37
C      11.31       7.44      16.86
C      11.28       7.56      18.07
C      11.26       7.65      19.48
C      10.05       7.86      20.18
C      10.03       7.89      21.56
C      11.21       7.70      22.29
C      12.43       7.53      21.61
C      12.46       7.51      20.22
O      10.05       7.77      24.35
O      10.31       7.59      10.56
O      12.55       7.21      10.58
O      12.29       7.40      24.37
