14

H      12.92       7.80       8.35
C      15.60       7.89       8.08
H      15.25       7.79       9.11
H      12.60       8.81       5.45
O      10.54       7.93       7.89
O      17.70       8.62       8.75
C      14.67       8.08       7.12
C      12.32       8.47       6.44
C      17.06       7.93       7.88
C      13.25       8.10       7.35
F      15.06       8.32       5.83
O      17.55       7.29       6.90
C      10.88       8.46       6.77
O      10.11       8.99       5.90
