26

N      10.86       8.67       5.15
O       7.72       8.93       6.99
O       9.25      12.43       1.80
O      10.66      14.16       2.28
O      13.83      11.57       6.46
O      13.43       9.35       6.10
H       9.08      10.30       6.32
H       8.93       6.28       6.36
H      11.16       5.40       5.07
H      12.47       7.64       4.22
H      12.50      13.81       5.56
H      13.76      13.17       4.52
H      12.46      14.16       3.80
C       8.77       9.23       6.41
C       9.69       8.28       5.83
C       9.69       6.88       5.87
C      10.85       6.43       5.22
C      11.55       7.55       4.77
C      11.09       9.98       4.68
C      10.81      12.08       3.46
C      10.22      12.98       2.46
C      11.87      12.17       4.34
C      12.69      13.40       4.55
C      12.06      10.92       5.03
C      13.19      10.60       5.94
S      10.01      10.55       3.50
