36

H       0.67      19.13      15.35
H       4.10      17.71      16.90
H       1.21      16.53      16.85
H       5.64      16.61      14.25
H       0.74      20.52      10.17
H      -0.70      20.07      11.11
H      -0.16      21.76      11.06
H       0.51      20.71      13.25
H       1.93      21.15      12.32
H       2.23      18.81      11.54
H       0.71      18.33      12.30
H       5.21      20.31      13.70
C       2.80      14.06      11.44
C       3.62      19.31      14.17
C       2.28      18.69      13.67
C       2.79      15.16      12.36
C       3.13      21.45      17.34
C       4.19      17.90      14.53
C       2.86      17.23      13.98
C       3.58      17.98      15.97
C       3.00      19.42      15.67
C       2.25      17.35      15.44
C       1.68      18.77      15.11
C       2.79      16.12      13.12
C       3.08      20.52      16.56
C       3.13      22.54      18.28
C       1.56      19.02      12.40
C       1.07      20.47      12.32
C       0.19      20.72      11.10
O       1.67      13.68      10.99
O       3.94      13.57      11.15
O       1.99      23.01      18.61
O       4.26      22.92      18.73
O       1.56      16.27      15.97
O       5.49      17.57      14.17
O       4.27      20.29      13.45
