12

C      10.40      -0.00      12.98
O      10.79      -1.08      13.54
C      10.40       0.00       3.74
O      10.01       1.08      13.54
C      10.40       0.00       5.17
C      10.40       0.00       6.40
O      10.50      -1.14       3.18
C      10.40       0.00       7.74
C      10.40      -0.00      11.54
C      10.40      -0.00       8.97
O      10.31       1.14       3.18
C      10.40      -0.00      10.31
