13

O       0.27      10.20      11.35
C       0.93       5.53      12.11
C       2.72       6.77      11.28
H       0.57       4.57      12.47
H      -0.95       6.55      12.35
C       0.09       6.63      12.04
C      -0.30       9.06      11.50
H       2.37       8.86      10.84
N       2.23       5.60      11.73
C       0.59       7.85      11.57
C       1.94       7.92      11.19
O      -1.56       8.90      11.58
H       3.77       6.80      11.00
