48

H       2.20      16.08       2.18
H       2.36      18.22       5.90
H       2.04      13.94       5.90
H       1.21      14.37       1.42
H       3.09      12.42       4.79
H       3.19      17.78       1.42
H       1.31      19.74       4.79
H       1.24      18.01       7.76
H       3.16      14.14       7.76
C       2.29      22.34       1.04
C       2.20      16.08      11.91
C       2.11       9.81       1.04
C       2.23      17.30       3.95
C       2.20      16.08       3.27
C       2.16      14.85       3.95
C       2.14      14.87       5.35
C       2.20      16.08       6.07
C       2.26      17.28       5.35
C       1.65      12.29       1.21
C       1.64      13.50       1.90
C       2.15      13.57       3.21
C       2.65      12.40       3.80
C       2.61      11.19       3.11
C       2.13      11.11       1.80
C       2.76      18.66       1.91
C       2.75      19.86       1.21
C       2.27      21.04       1.80
C       1.78      20.96       3.11
C       1.75      19.76       3.80
C       2.25      18.58       3.21
C       1.68      17.16       8.27
C       1.68      17.16       9.66
C       2.20      16.08      10.41
C       2.72      14.99       9.66
C       2.72      15.00       8.27
C       2.20      16.08       7.55
Cl       3.21       9.77       3.89
Cl       1.05      12.26      -0.41
Cl       3.35      19.89      -0.41
Cl       1.19      22.39       3.89
Cl       1.05      18.59      10.40
Cl       3.34      13.56      10.40
O       3.06       9.62       0.22
O       3.24      23.14       1.27
O       3.15      15.47      12.51
O       1.16       9.01       1.27
O       1.25      16.68      12.51
O       1.34      22.54       0.22
