32

Cl       8.58      22.24       9.49
Cl       3.77      25.31       7.15
H       4.26      22.27       8.10
H       2.66      20.90      12.59
H       9.41      27.44       4.69
H       4.99      23.84      14.74
H       6.30      26.01       2.04
H       6.77      21.92       6.84
H       5.58      25.64       9.82
H       8.10      25.29       8.54
C       6.50      22.75       7.50
C       5.85      24.82       9.15
C       3.08      21.58      13.32
C       8.75      27.23       3.85
C       7.22      23.11       8.84
C       5.12      24.45       7.82
C       4.85      22.72      11.95
C       7.15      25.60       4.90
C       5.11      22.94       8.20
C       4.15      22.49      13.14
C       7.23      24.62       8.46
C       5.81      23.30       9.57
C       6.52      24.28       7.08
C       5.38      22.89      10.86
C       6.87      24.91       5.86
C       7.62      26.39       3.83
C       4.27      23.09      14.41
C       7.17      26.48       2.50
N       3.35      22.60      15.26
N       7.99      27.28       1.79
N       2.61      21.66      14.57
N       8.97      27.75       2.63
