18

C       4.58       2.34      11.00
C       4.61      -3.46      11.03
H       6.75       0.67      11.04
H       2.46       0.72      10.89
H       6.69      -1.83      11.07
H       1.36      -1.32      10.38
C       4.56      -1.98      10.98
C       4.59       0.84      10.97
C       3.33      -1.26      10.87
C       5.81       0.12      11.01
C       3.39       0.15      10.91
C       5.77      -1.26      11.03
N       2.11      -1.89      10.77
O       5.68       2.95      10.76
O       3.47       2.90      11.28
H       2.16      -2.85      10.43
O       3.56      -4.13      10.77
O       5.73      -4.02      11.33
