24

C       1.75       1.09       5.99
C       2.72       0.54       5.14
H      -1.75       0.79       8.75
C       3.92       1.23       4.95
H      -1.04      -2.66       6.26
C       4.13       2.44       5.61
H       0.85      -1.44       5.23
C       3.08       2.96       6.37
H       2.56      -0.42       4.67
C      -2.59      -1.76       8.38
H       4.72       0.82       4.32
C       5.46       3.14       5.57
H       3.19       3.92       6.88
N      -0.20       0.94       7.39
N       1.93       2.30       6.55
O      -2.95      -1.34       9.51
O      -3.07      -2.81       7.79
C      -1.19       0.27       7.97
O       5.53       4.11       6.44
C      -1.52      -1.04       7.62
O       6.35       2.78       4.78
C      -0.80      -1.64       6.58
C       0.25      -0.95       6.00
C       0.55       0.34       6.44
