20

N       5.04       0.62       5.81
H       4.73      -0.68       2.89
N       4.26       0.29       4.73
N       6.35      -0.32       4.33
H       7.12       0.40       6.24
H       8.94       0.35       4.80
O      10.64      -3.23       0.61
H      10.88      -0.52       3.58
O      12.03      -1.78       1.60
H       8.28      -2.86       1.07
H       6.32      -2.07       2.34
C       5.06      -0.28       3.85
C       6.29       0.26       5.56
C       7.50      -0.82       3.65
C       8.78      -0.38       4.00
C       9.89      -0.86       3.30
C       9.72      -1.77       2.24
C       8.42      -2.19       1.91
C       7.32      -1.72       2.61
C      10.87      -2.29       1.44
