24

H      -2.51      -1.09      13.19
H      -2.79      -1.64      10.79
H      -0.40       1.86       9.88
H      -0.26       2.27      12.37
H      -1.23       0.60       8.05
H      -2.92      -1.89       8.70
H      -3.70      -3.19       6.89
H      -3.96      -3.56       4.41
H      -1.89      -0.09       3.54
H      -1.51       0.43       5.94
C      -2.06      -0.48      12.42
C      -2.21      -0.76      11.07
C      -1.61       0.07      10.11
C      -0.88       1.18      10.58
C      -0.78       1.41      11.95
C      -1.74      -0.14       8.67
C      -2.42      -1.14       8.08
C      -2.58      -1.34       6.64
C      -3.28      -2.47       6.18
C      -3.45      -2.69       4.82
C      -2.28      -0.74       4.32
C      -2.07      -0.47       5.67
N      -1.36       0.60      12.85
N      -2.96      -1.83       3.91
