19

H      12.89      10.79      12.99
C      13.15       5.15      11.10
S      12.92       7.74      14.27
S      13.09       8.47      10.16
H      14.04       4.53      11.29
H      13.18       5.52      10.07
H      12.28       4.48      11.21
O      13.07       3.87      13.67
O      12.92       5.16      15.55
C      12.99       4.99      14.28
C      13.01      11.24      10.16
O      12.94      12.34      10.79
O      13.07      11.08       8.89
C      13.07       6.29      12.07
C      12.95       9.91      12.34
C      13.00       6.20      13.46
C      13.01      10.01      10.96
C      12.97       8.56      12.76
C      13.04       7.65      11.68
