26

H     -13.60      10.99      10.64
O     -11.97      11.21      12.48
H     -14.84      16.74       5.04
O     -16.44      16.50       3.17
H     -11.42      14.70      10.64
H     -12.65      15.41       8.65
H     -16.96      13.00       4.98
H     -15.77      12.30       7.00
O     -17.57      14.53       3.15
O     -10.83      13.18      12.49
F     -15.01      11.50       8.64
F     -13.51      16.27       7.11
C     -11.68      12.36      12.00
C     -16.71      15.34       3.63
C     -12.42      12.80      10.79
C     -15.98      14.91       4.86
C     -13.39      11.97      10.21
C     -14.08      12.39       9.09
C     -15.05      15.76       5.46
C     -14.39      15.35       6.61
C     -16.23      13.66       5.44
C     -15.55      13.28       6.59
C     -12.17      14.04      10.20
C     -12.87      14.44       9.07
C     -13.87      13.64       8.45
C     -14.59      14.09       7.24
