46

N       0.08       9.47       8.24
H      -0.60       7.98       6.29
N      -2.33      12.98       5.36
H       0.47      10.69       6.61
O      -3.08       6.36       1.31
H      -2.99      10.82       4.19
O      -2.76      14.16      10.30
H      -3.90       9.33       5.33
O      -0.78       6.37       1.30
O      -0.46      14.19      10.30
H      -0.51      12.02       5.38
H      -4.42      11.43       6.14
H      -4.99      10.49       7.55
H      -4.00      11.92       7.80
O      -3.47      10.00       9.42
O      -2.20       8.43       8.56
O      -4.37       7.54       6.98
O      -2.51       6.78       6.08
H      -1.46      12.00       2.75
H      -0.10      10.95       3.18
H      -1.49      10.29       2.29
O       0.97       7.77       4.49
O       1.32       9.93       4.69
O       0.52       8.33       8.24
O       0.05      10.25       9.20
C      -1.60      13.83       9.87
C      -1.93       6.69       1.75
C      -3.01       9.11       5.93
O      -3.44      12.95       4.80
O      -1.77      13.97       5.81
C      -0.53       8.97       5.83
C      -0.38      10.06       6.88
C      -1.58      12.89       8.78
C      -1.80       9.22       4.97
C      -2.95      10.17       7.08
C      -1.62      11.00       6.93
C      -1.54      11.66       5.49
C      -1.92      10.68       4.39
C      -1.52      12.01       7.95
C      -1.91       8.27       3.88
C      -1.93       7.57       2.89
C      -4.17      11.07       7.14
C      -1.19      10.99       3.08
N      -2.88       9.46       8.49
N      -3.29       7.67       6.39
N       0.69       8.87       4.94
