33

C       3.44       4.54      15.10
O       5.37       1.22      11.60
O       6.27       2.53       9.99
O       6.21       7.50      10.52
O       5.03       8.34      12.27
O       5.38       7.85      18.60
O       6.27       6.54      20.22
H       6.11       4.96      10.40
H       4.21       6.78      13.81
H       4.40       2.48      13.47
H       2.79       5.41      15.15
O       6.21       1.58      19.69
O       5.03       0.74      17.93
H       6.11       4.12      19.80
H       4.21       2.30      16.40
H       4.40       6.59      16.73
H       2.79       3.66      15.06
C       5.30       3.60      11.87
C       5.59       4.86      11.35
C       5.22       6.00      12.08
C       4.53       5.87      13.29
C       4.23       4.62      13.82
C       4.63       3.48      13.10
C       5.67       2.36      11.11
C       5.51       7.37      11.58
C       5.30       5.48      18.33
C       5.59       4.21      18.85
C       5.22       3.08      18.13
C       4.53       3.21      16.92
C       4.23       4.46      16.39
C       4.63       5.59      17.10
C       5.67       6.72      19.09
C       5.52       1.71      18.62
