24

N      31.56      20.01      12.25
H      30.52      20.62       8.29
N      23.63      24.59       5.77
H      27.98      22.08      12.44
O      28.30      21.89       7.85
O      26.88      22.71      10.17
H      24.67      23.99       9.73
H      27.21      22.53       5.59
C      30.46      20.65      10.48
C      29.98      20.92       9.19
C      28.79      21.61       9.11
C      29.75      21.06      11.64
C      28.53      21.76      11.55
C      28.07      22.03      10.28
C      24.73      23.96       7.54
C      25.20      23.68       8.84
C      26.40      22.99       8.91
C      25.44      23.55       6.38
C      26.65      22.85       6.47
C      27.11      22.58       7.74
N      31.58      20.00      10.91
N      30.48      20.64      12.71
N      23.61      24.60       7.11
N      24.71      23.97       5.31
