24

C      30.08      12.79      13.90
C      28.61      10.09      13.96
C      30.77      13.99      13.90
C      32.37      16.61      13.96
N      29.24       8.26      14.98
N      34.27      16.98      14.98
H      32.19      10.96      15.84
H      31.04       8.96      15.84
H      33.41      13.08      15.84
H      34.57      15.07      15.84
N      28.28       8.81      14.20
N      33.32      17.54      14.20
H      29.14      12.72      13.35
H      27.98      10.72      13.34
H      30.36      14.84      13.35
H      31.51      16.84      13.34
C      30.56      11.66      14.59
C      29.83      10.40      14.59
C      31.99      14.14      14.59
C      32.72      15.40      14.59
C      31.78      11.81      15.29
C      30.18       9.19      15.23
C      32.47      13.01      15.29
C      33.94      15.70      15.23
