34

H       1.66       1.70      11.54
H       1.66      -0.83      11.88
H       1.66      -1.70      14.22
H       1.66      -0.10      16.11
H       1.66       1.40      17.58
H       1.66       5.69      18.26
H       1.66       5.34      20.19
H       1.66       4.92      22.62
H       1.66       0.69      21.92
H       1.66       1.07      19.49
C       1.66       1.24      12.53
C       1.66      -0.14      12.72
C       1.66      -0.63      14.02
C       1.66       0.27      15.09
C       1.66       1.64      14.82
C       1.66       2.69      15.87
C       1.66       2.43      17.24
C       1.66       3.49      18.17
C       1.66       4.79      17.64
C       1.66       4.98      16.26
C       1.66       6.36      15.64
C       1.66       3.24      19.63
C       1.66       4.31      20.55
C       1.66       4.09      21.92
C       1.66       2.78      22.42
C       1.66       1.70      21.52
C       1.66       1.94      20.15
C       1.66       2.54      23.90
N       1.66       2.11      13.55
N       1.66       3.95      15.41
O       1.66       6.33      14.34
O       1.66       7.36      16.37
O       1.66       1.36      24.36
O       1.66       3.57      24.66
