16

C       4.74       6.34       8.08
H       7.97       6.39       4.84
C       6.95       6.38       5.22
C       5.85       6.39       4.37
C       6.55       6.37       6.57
C       5.15       6.36       6.72
C       5.83       6.34       8.95
Cl       3.09       6.34       8.51
C       5.87       6.33      10.42
O       7.02       6.38      10.96
O       4.75       6.28      11.03
C       5.86       6.41       2.90
O       4.73       6.45       2.31
O       7.00       6.37       2.33
S       7.35       6.36       8.10
S       4.33       6.38       5.21
