28

H       3.02       3.86       7.86
H       4.21      -3.74       3.08
H       0.27      -0.76       3.62
H      -0.75       0.70       7.26
H       3.22       1.99       6.20
H       4.27      -1.88       4.77
C       2.26      -4.48       1.49
C       1.02       4.52       9.42
C       2.21      -3.32       2.43
C       1.10      -2.45       2.57
C       1.12      -1.43       3.51
C       2.25      -1.24       4.32
C       3.38      -2.06       4.16
C       3.35      -3.09       3.23
C       2.31       2.13       6.79
C       2.20       3.16       7.71
C       1.23       1.24       6.63
C       1.04       3.34       8.49
C      -0.03       2.43       8.33
C       0.07       1.40       7.39
N       2.33      -0.23       5.30
N       1.20       0.17       5.71
Cl      -1.47       2.47       9.28
Cl      -0.29      -2.55       1.56
O       3.41      -4.82       1.06
O       1.17      -5.07       1.23
O      -0.10       4.96       9.81
O       2.15       5.02       9.72
