20

H       2.72       4.96       2.03
H       1.76       3.46       2.03
H       4.84       2.54       6.31
H       6.52       1.41       4.86
H       4.46       3.85       0.57
H       3.48       2.35       0.55
C       2.64       3.94       5.55
C       3.58       3.35       3.29
C       3.66       3.30       4.68
C       4.75       2.59       5.22
C       5.69       1.96       4.41
C       5.60       2.01       3.00
C       4.53       2.72       2.47
C       3.86       3.17       1.19
C       2.78       3.86       2.11
C       6.62       1.35       2.14
O       6.49       1.52       0.88
O       1.63       4.46       4.95
O       7.54       0.67       2.73
O       2.84       3.92       6.81
