38

C       3.38       0.94      13.35
C       3.39      -0.99      15.46
H       1.42      -2.75      16.07
H       5.53       2.23      12.18
O       4.44       5.21       8.56
O       2.24      -5.23      20.28
O       4.50      -5.19      20.24
O       2.18       5.15       8.55
H       5.36      -1.49      17.32
H       1.20       1.95      11.98
H       5.30      -3.21      19.10
H       1.20       3.59      10.19
H       5.54      -0.86      15.28
H       1.23       0.81      13.54
O       5.76       3.89      10.30
O       1.10      -4.51      17.97
H       5.54       0.78      13.49
H       1.24      -0.80      15.35
H       0.45      -4.29      17.28
H       5.56       4.53       9.56
C       3.35      -4.85      19.80
C       3.30       4.79       9.01
C       2.21      -3.74      17.80
C       4.57       3.42      10.71
C       2.27      -2.81      16.75
C       4.56       2.49      11.76
C       3.39      -1.99      16.55
C       3.37       1.93      12.24
C       4.49      -2.14      17.41
C       2.16       2.35      11.65
C       4.45      -3.09      18.43
C       2.15       3.27      10.62
C       3.33      -3.90      18.66
C       3.34       3.82      10.12
C       4.59      -0.49      14.91
C       2.19       0.45      13.90
C       4.58       0.45      13.89
C       2.19      -0.48      14.93
