50

H      10.46       4.81       0.64
H       6.55      10.70      -0.69
H       9.69       4.85      -1.78
H       7.32      10.66       1.72
H       5.00       7.36      -4.39
H       7.96       7.13       5.38
H       4.35       7.50      -6.81
H       8.61       7.01       7.80
H       8.38       8.52      -7.85
H      12.66       8.00       6.77
H       9.04       8.39      -5.43
H      12.01       8.14       4.35
C       5.73       7.61      -5.15
C       8.99       7.33       5.70
C       5.37       7.69      -6.49
C       9.35       7.26       7.04
C       6.33       8.01      -7.47
C      10.67       7.51       7.43
C       7.65       8.26      -7.08
C      11.63       7.82       6.46
C       8.02       8.19      -5.74
C      11.27       7.90       5.11
C       7.05       7.87      -4.79
C       9.95       7.65       4.74
C       5.93       8.09      -8.91
C      11.06       7.42       8.87
C       8.79       8.81       2.93
C       8.22       6.71      -2.99
C       9.97       6.62       2.53
C       7.04       8.89      -2.58
C       9.51       6.67       1.12
C       7.50       8.85      -1.17
C       8.72       7.75       0.65
C       8.29       7.77      -0.70
C       8.36       8.81       1.52
C       8.65       6.70      -1.57
C       9.85       5.63       0.25
C       7.15       9.88      -0.30
C       9.43       5.65      -1.09
C       7.58       9.86       1.04
N       9.57       7.70       3.35
N       7.44       7.81      -3.40
O       6.86       8.37      -9.75
O      10.13       7.24       9.72
O       4.71       7.88      -9.19
O      12.30       7.54       9.15
O       8.50       9.70       3.72
O       8.52       5.82      -3.78
O      10.65       5.70       2.98
O       6.36       9.80      -3.03
