18

O      11.86      16.56       6.24
C      14.12      19.11       4.86
C      11.88      21.46       3.28
C      13.04      18.36       5.33
C      12.97      22.19       2.85
C      12.30      20.35       4.04
C      13.71      20.26       4.15
O      14.02      16.90       6.89
O      14.10      23.94       1.79
O      16.31      19.74       4.93
O      11.82      23.83       1.63
O      15.87      17.58       4.97
H      10.85      21.74       3.05
S      11.52      19.05       4.85
C      12.99      17.18       6.21
S      14.51      21.55       3.36
C      12.95      23.41       2.03
N      15.53      18.77       4.95
