26

H       8.29       0.49       6.09
H       8.82       0.21       3.68
H      10.28       4.07       7.98
H      11.66       3.16       6.50
H      12.12       2.94       4.07
H       8.92      -0.01       8.21
O       7.87       1.74      12.62
H       8.36       0.32      10.61
O       8.97       3.71      12.60
O      10.38       0.33       1.70
O      11.74       2.15       1.79
H       9.78       4.37      10.40
C       9.05       2.36      10.66
C       9.61       3.41       9.91
C       9.89       3.23       8.56
C       9.64       2.01       7.92
C       8.62       2.60      12.06
C       9.10       0.96       8.68
C       8.80       1.13      10.03
C       9.15       1.01       5.66
C       9.42       0.87       4.30
C      11.27       2.42       4.52
C      11.00       2.54       5.88
C       9.93       1.85       6.48
C      10.49       1.58       3.72
C      10.87       1.35       2.30
