20

H      -0.52       1.54       5.59
H       1.60       0.83      10.43
H      -1.89      -0.50       5.92
H      -1.25       0.00      11.25
H       0.07      -1.12      10.84
H       0.30       1.95      10.88
C       1.16       2.73       7.42
C      -2.18      -1.98       8.17
C       0.05       1.03       8.87
C       0.19       1.63       7.62
C      -0.59       1.09       6.57
C      -1.36      -0.06       6.77
C      -1.48      -0.67       8.03
C      -0.80      -0.07       9.08
C      -0.43      -0.19      10.55
C       0.53       1.05      10.31
O       0.94       3.61       6.51
O      -1.80      -2.90       7.39
O      -3.09      -2.10       9.07
O       2.17       2.72       8.19
