16

C      16.29      13.33      26.47
C      16.24       7.06      30.63
C      17.36      11.41      27.83
O      17.42      13.84      26.20
C      16.28      12.11      27.28
O      15.14      13.75      26.11
C      15.57      10.12      28.55
C      16.97      10.27      28.55
C      15.18       8.98      29.28
C      16.25       8.28      29.82
O      17.40       6.63      30.99
O      15.11       6.54      30.89
F      18.64      11.77      27.69
F      13.89       8.62      29.41
S      14.76      11.36      27.66
S      17.77       9.03      29.44
