22

O       3.47       7.99      13.22
O       3.47       5.73      13.43
O      -3.47       5.75      13.08
O      -3.54       8.01      13.28
H      -2.52       8.69      15.13
H      -1.30      10.12      16.72
H       2.45       8.56      15.29
H       1.20      10.05      16.81
H       1.26       5.31      11.99
H      -1.25       5.34      11.93
C      -1.43       6.91      13.36
C      -0.75       7.80      14.26
C      -0.70       6.02      12.58
C      -1.44       8.67      15.15
C      -0.75       9.47      16.04
C       1.39       6.88      13.44
C       0.70       6.00      12.62
C       0.69       7.77      14.30
C       1.37       8.60      15.24
C       0.67       9.43      16.09
C       2.89       6.87      13.37
C      -2.92       6.89      13.23
