54

H     -10.04       9.85      10.61
C      -5.85      10.06       7.35
H      -7.15       8.64      11.43
H      -8.30       7.70       7.40
C      -6.96      -0.38      11.48
H      -5.14       4.65      13.12
H      -6.06       6.91      12.85
C      -2.43       2.40       8.76
H      -7.97       5.43       6.50
H      -7.10       3.14       6.75
N      -3.80      -1.68      10.35
N      -2.73      -1.03       9.75
N      -9.86      11.32       9.10
N      -8.97      11.54       8.08
H      -5.82       9.08       7.83
H      -5.35      10.82       7.97
H      -5.34      10.00       6.38
N      -4.33       2.34      12.39
N      -5.95       1.19       7.88
H      -7.36       0.13      10.59
H      -6.62       0.36      12.22
O      -7.20      10.47       7.05
O      -6.68       0.21       8.10
O      -5.37       1.43       6.82
O      -3.10       2.40      12.33
O      -4.99       2.01      13.38
H      -7.74      -1.01      11.92
H      -2.79       3.01       9.60
H      -3.19       2.37       7.95
H      -1.50       2.84       8.37
C      -4.77      -0.78      10.58
O      -5.90      -1.28      11.12
C      -3.04       0.26       9.66
O      -2.08       1.08       9.19
C      -4.36       0.51      10.16
C      -9.47      10.22       9.77
C      -8.08      10.53       8.08
C      -8.33       9.66       9.16
C      -7.22       7.92      10.62
C      -7.77       8.32       9.39
C      -7.85       7.39       8.34
C      -7.38       6.08       8.49
C      -6.80       5.68       9.73
C      -6.72       6.62      10.80
C      -7.49       5.12       7.43
C      -7.02       3.85       7.57
C      -6.37       3.44       8.79
C      -6.28       4.37       9.88
C      -5.66       3.99      11.11
C      -5.60       4.94      12.18
C      -6.12       6.20      12.03
C      -5.81       2.17       8.98
C      -5.10       1.78      10.12
C      -5.08       2.71      11.17
