15

N      10.23       6.15      12.24
C      13.70       8.66      12.66
C      12.46       7.83      12.48
C      11.80       7.36      13.62
C      10.70       6.52      13.44
C      10.85       6.65      11.17
C      11.97       7.48      11.22
H      12.14       7.63      14.62
H      10.16       6.13      14.31
H      12.45       7.84      10.31
C      10.27       6.23       9.84
O      14.80       8.04      12.52
O      13.52       9.88      12.96
O       9.65       7.14       9.19
O      10.45       5.02       9.50
