36

H      11.20       7.47      16.35
H       7.73       9.80      22.36
H       7.41       9.53      16.51
H      11.54       7.79      22.17
H       7.26       9.41      14.01
H      11.74       7.96      24.66
H      10.92       6.48      12.84
H       8.06      10.86      25.84
C       9.03       8.39      12.30
C       9.96       8.96      26.39
C      10.25       7.83      14.45
C       8.72       9.50      24.24
C      10.34       7.91      15.84
C       8.61       9.39      22.85
C       9.31       8.51      16.59
C       9.62       8.78      22.10
C       8.20       9.06      15.93
C      10.76       8.27      22.76
C       8.11       8.98      14.54
C      10.87       8.37      24.14
C       9.12       8.37      13.79
C       9.86       8.97      24.89
C       9.51       8.67      20.64
C       9.38       8.55      18.06
C      11.29       7.09      13.69
C       7.68      10.24      25.01
N       8.38       9.18      18.72
N      10.47       7.97      19.98
N       8.45       9.25      20.03
N      10.40       7.90      18.67
O      10.14       8.47      11.66
O       8.85       8.87      27.02
O       7.87       8.37      11.79
O      11.12       8.99      26.89
O      12.48       7.10      13.99
O       6.49      10.22      24.72
