28

N      -5.97       1.47      11.03
O      -9.43      -2.23      12.64
O      -7.34      -2.75      11.94
O      -7.42       2.38       8.70
O      -9.61       2.77       9.16
O      -5.59      -0.38       9.68
H      -4.16       1.81      13.17
H      -2.74       1.83      12.12
H      -3.75       0.37      12.21
H      -4.16       1.66      10.09
H      -4.66       3.08      11.02
H      -7.00       3.24      11.53
H      -6.45       1.88      13.67
H      -8.14       2.37      13.54
H      -7.90      -0.17      14.13
H      -8.32      -0.47       9.89
H      -9.26       1.67      11.31
C      -3.77       1.47      12.20
C      -4.61       1.98      11.04
C      -7.13       2.15      11.62
C      -7.37       1.72      13.08
C      -7.79       0.28      13.15
C      -7.98      -0.47      12.05
C      -8.27      -1.92      12.21
C      -7.83       0.13      10.66
C      -8.31       1.59      10.77
C      -8.45       2.30       9.44
C      -6.33       0.33      10.36
