39

F      10.82       6.10       7.96
F       2.86       3.49       6.25
H       7.54       3.10       7.61
H      11.84       9.78      10.34
H       7.07       9.77      10.34
H       5.32       2.90       6.51
H       3.97       7.21       8.57
H       5.34       8.35       9.35
H       9.43      10.31      10.68
H       9.48       3.26       8.72
H      11.18       4.30      10.15
H       9.74       3.81      11.10
H       9.97       5.50      10.62
C      12.85       7.66       8.89
C       1.93       5.98       7.52
C       3.33       5.51       7.48
C      11.42       7.96       9.23
C       5.06       3.86       6.95
C       3.76       4.30       6.88
C       4.31       6.28       8.12
C       5.66       5.90       8.19
C       6.04       4.64       7.63
C       6.68       6.73       8.79
C       8.03       6.28       8.83
C       8.28       4.86       8.60
C       7.33       4.14       7.88
C       6.37       8.02       9.33
C       7.34       8.82       9.87
C       8.72       8.49       9.76
C       9.07       7.24       9.14
C       9.73       9.38      10.19
C      11.06       9.10       9.98
C      10.43       7.11       8.79
C      10.10       4.47      10.29
N       9.38       4.21       9.06
O      13.23       7.99       7.72
O       1.05       5.38       6.80
O      13.54       7.11       9.80
O       1.69       6.97       8.30
