10

C       0.40       7.10       7.43
C      -0.94       7.10       7.38
O      -4.13       8.29       7.06
C      -3.61       7.15       7.29
O       3.59       8.29       7.74
O      -4.20       6.04       7.51
C       3.07       7.15       7.51
O       3.66       6.04       7.29
C       1.63       7.11       7.48
C      -2.17       7.11       7.33
