28

O       1.49      15.48       9.37
H       0.67      16.64       7.46
H      -0.59      22.63       4.86
H      -0.71      24.51       3.18
H       3.43      21.76       3.61
H       4.32      19.96       7.12
H       3.34      23.67       1.97
C       1.25      25.33       1.52
C       2.61      16.04       9.13
C       1.31      24.20       2.49
C       2.49      23.44       2.62
C       2.54      22.39       3.52
C       1.43      22.11       4.33
C       0.26      22.87       4.21
C       0.20      23.91       3.29
C       1.35      18.43       6.49
C       1.47      17.38       7.39
C       2.39      19.39       6.40
C       2.59      17.23       8.22
C       3.62      18.19       8.14
C       3.52      19.23       7.22
N       1.36      21.06       5.28
N       2.46      20.48       5.51
Cl      -0.04      18.46       5.46
Cl       5.02      18.19       9.14
O       0.11      25.64       1.05
O       2.35      25.91       1.24
O       3.74      15.65       9.55
