29

C       4.03       4.66       6.24
N       1.26       8.58       1.80
N       5.10       2.01       8.58
H       0.57       6.92       4.77
N       2.29       7.95       1.06
H       6.46       5.11       6.65
N       6.10       1.92       7.62
H       6.15       7.30       4.59
H       0.84       4.37       6.53
Cl       4.50       6.47       1.51
H       2.44       3.57       8.34
Cl       6.59       2.72       5.15
C       1.37       8.16       3.10
C       4.21       2.93       8.19
O       0.78       6.01       5.16
O       6.23       5.72       5.93
C       3.07       7.27       1.98
C       5.76       2.78       6.64
O       5.26       7.51       4.24
O       1.75       4.07       6.78
O       0.51       8.44       4.02
O       3.12       3.18       8.94
C       2.55       7.35       3.26
C       4.61       3.53       6.97
C       2.15       5.89       5.24
C       4.88       5.63       5.66
C       4.40       6.60       4.78
C       2.64       4.89       6.09
C       3.03       6.65       4.45
