48

H       7.62       3.29       5.30
H       6.77       4.77       3.49
H      10.04       7.49       4.21
H      10.86       6.03       6.03
H      10.57      12.85       2.87
H       9.94      10.44       2.76
H       6.29      11.52       0.73
H       6.94      13.92       0.86
H       3.65       7.79      -2.95
H       4.83       8.65      -0.94
H       7.22       5.07      -0.83
H       6.03       4.23      -2.86
H       8.57       8.92       3.59
H       6.81       9.49      -0.28
H       7.06       5.54       1.40
C       9.82       3.68       6.81
C       9.29       4.57       5.76
C       8.14       4.22       5.04
C       7.68       5.04       4.03
C       8.35       6.24       3.71
C       9.49       6.59       4.46
C       9.96       5.76       5.47
C       9.22      14.96       1.86
C       8.78      13.53       1.88
C       9.62      12.54       2.43
C       9.26      11.20       2.36
C       8.06      10.80       1.75
C       7.22      11.80       1.21
C       7.58      13.15       1.28
C       4.07       5.50      -4.27
C       4.76       5.95      -3.02
C       4.43       7.20      -2.47
C       5.10       7.68      -1.35
C       6.11       6.92      -0.73
C       6.41       5.66      -1.28
C       5.76       5.19      -2.41
C       7.89       7.12       2.62
C       8.11       8.50       2.70
C       7.72       9.37       1.67
C       7.06       8.83       0.55
C       7.25       6.61       1.48
C       6.81       7.46       0.45
O       9.09       2.78       7.36
O      11.03       3.79       7.22
O      10.40      15.18       2.32
O       8.43      15.83       1.40
O       3.02       6.19      -4.56
O       4.56       4.56      -4.95
