20

C      24.20      -0.44      28.35
C      22.10       0.69      26.69
C      24.24      -0.53      26.96
C      22.08       0.77      28.12
C      23.22       0.02      26.17
C      23.10       0.22      28.90
C      25.02      -1.03      25.77
C      23.87      -0.42      24.87
H      23.03       0.32      29.99
H      26.01      -0.58      25.64
H      25.13      -2.12      25.71
H      23.29      -1.14      24.28
H      24.18       0.41      24.21
Cl      20.80       1.54      28.99
C      21.07       1.24      25.77
C      25.27      -1.00      29.23
O      20.06       1.82      26.26
O      21.31       1.06      24.52
O      25.13      -0.82      30.49
O      26.23      -1.61      28.64
