34

H       6.24       8.95       4.84
H       6.47       8.64       2.38
H       1.96       8.91       4.42
H       7.25       7.95      -4.43
H       2.98       7.82      -4.83
H       2.75       8.11      -2.37
H       1.25       7.70       1.98
H       2.16       8.44       0.65
H       1.24       9.47       1.76
H       7.95       7.37      -1.71
H       7.06       8.49      -0.66
H       7.99       9.13      -2.03
C       3.98       9.19       6.25
C       5.24       7.63      -6.25
C       4.08       8.97       4.78
C       5.36       8.88       4.20
C       5.49       8.71       2.84
C       4.36       8.61       2.00
C       3.06       8.68       2.58
C       2.95       8.86       3.96
C       4.53       8.46       0.60
C       4.69       8.34      -0.60
C       4.86       8.19      -2.00
C       6.15       8.16      -2.58
C       6.27       7.98      -3.96
C       5.14       7.85      -4.78
C       3.86       7.91      -4.19
C       3.73       8.07      -2.83
C       1.86       8.57       1.69
C       7.36       8.29      -1.70
O       5.10       9.34       6.85
O       6.39       7.58      -6.79
O       4.12       7.49      -6.85
O       2.83       9.25       6.79
