24

O      15.49       9.91      13.43
O      16.97       8.30      12.77
O      11.93       5.34       9.04
O      10.87       7.35       8.88
H      16.17       7.50      10.45
H      14.38       6.57       8.98
H      13.16       8.88      13.19
H       9.93       8.75      10.54
H       7.88       8.31      12.28
H       8.98       7.02      14.43
H      11.64       6.75      13.86
C      15.82       8.87      12.77
C      14.77       8.26      11.90
C      15.12       7.59      10.72
C      14.12       7.08       9.91
C      12.77       7.17      10.27
C      11.77       6.57       9.34
C      12.42       7.79      11.49
C      13.43       8.36      12.27
C       9.93       8.26      11.50
C       8.92       8.02      12.41
C       9.49       7.36      13.54
C      10.84       7.22      13.29
N      11.11       7.75      12.03
