18

H       9.17      -2.14      10.47
H       9.23      -0.05       9.08
H       7.64       2.51      13.63
H       7.95       3.36      12.11
H       8.05       0.20      13.89
C       8.61      -2.29      13.13
C       8.60      -1.08      12.26
C       8.93      -1.17      10.89
C       8.96      -0.02      10.14
C       8.66       1.25      10.68
C       8.73       2.43       9.80
C       8.30       1.34      12.06
C       8.29       0.15      12.83
O       8.67      -3.43      12.54
O       8.57      -2.10      14.39
O       8.50       3.59      10.32
O       9.04       2.24       8.57
N       7.97       2.51      12.67
