68

H      10.05       8.68       2.91
H       9.68       7.04       3.57
H       9.74       8.46       4.66
H       4.22       7.12      -3.25
H       5.02       7.06      -4.86
H       4.13       8.54      -4.37
H      12.15       6.65      -4.34
H       2.46       5.35       4.77
H       9.15       3.14       0.41
H       9.28       2.01      -0.98
H       8.00       1.78       0.26
H       4.56       3.17       0.12
H       5.11       1.87       1.23
H       5.93       2.11      -0.35
H       2.80       6.82       1.42
H       2.14       5.25       0.88
H       3.21       6.20      -0.21
H      10.08       5.35       0.03
H      11.24       6.12      -1.12
H      11.43       4.39      -0.68
H       6.09       8.82      -0.88
H       4.96       8.07       0.28
H       4.41       8.52      -1.37
H       8.60       8.90       1.13
H       8.28       8.06      -0.43
H       9.93       8.06       0.26
C       6.02       7.26       5.26
C       8.14       7.81      -5.30
C       6.01       7.26       3.76
C       8.07       7.28      -3.91
C       7.20       7.47       3.03
C       6.91       7.43      -3.11
C       7.41       6.73       1.84
C       6.74       6.66      -1.94
C       6.43       5.83       1.39
C       7.67       5.65      -1.60
C       5.13       5.92       1.95
C       8.88       5.62      -2.33
C       4.92       6.63       3.13
C       9.08       6.41      -3.46
C       6.70       4.65       0.54
C       7.38       4.58      -0.64
C       9.48       8.11       3.65
C       4.75       7.71      -4.02
C      10.34       6.14      -4.23
C       3.58       6.63       3.82
C       8.59       2.52      -0.31
C       5.43       2.61       0.49
C       3.01       5.92       0.84
C      10.70       5.19      -0.87
C       5.25       8.14      -0.77
C       8.86       8.03       0.50
O       4.92       6.92       5.83
O       9.31       7.86      -5.82
O       7.14       7.40       5.85
O       7.06       8.09      -5.91
O       8.07       8.39       3.50
O       5.93       8.32      -3.47
O      10.50       5.26      -5.06
O      11.38       6.94      -3.81
O       2.88       7.63       4.00
O       3.19       5.37       4.10
O       7.75       3.33      -1.14
O       6.31       3.49       1.20
O       4.12       5.18       1.36
O       9.91       4.76      -1.99
O       5.60       6.80      -1.19
O       8.64       6.80       1.21
