20

S      12.89       7.63      14.16
S      12.81       8.50      10.08
H      12.88      10.72      13.00
S      12.84       5.00      10.67
H      14.56       3.71      11.06
O      13.40       3.82      13.61
O      12.77       5.09      15.40
C      13.04       4.91      14.16
C      12.86      11.25      10.17
O      12.96      12.35      10.82
O      12.79      11.12       8.90
C      12.89       6.27      11.93
C      12.86       9.87      12.32
C      12.93       6.12      13.32
C      12.84      10.01      10.95
C      12.86       8.51      12.68
O      14.36       4.56      10.57
C      12.85       7.63      11.57
O      12.57       5.71       9.46
O      12.02       3.90      11.08
