16

C      26.36      15.91      12.96
C      28.54      18.34      11.51
C      27.42      15.21      13.50
C      27.48      19.04      10.97
F      25.07      15.56      13.10
C      26.75      17.05      12.23
C      28.15      17.20      12.24
F      29.83      18.70      11.38
O      26.34      20.63       9.72
O      28.60      20.83       9.97
C      27.42      13.99      14.32
S      28.95      15.96      13.12
O      28.57      13.54      14.64
S      25.95      18.28      11.34
O      26.29      13.50      14.62
C      27.48      20.26      10.16
