23

H      11.67      -2.61      13.19
H      12.74       0.13      12.29
H      13.61      -3.29      11.65
H      10.33      -3.62      10.40
H       9.32      -2.18      10.69
H       8.87      -3.35       9.43
H       9.89      -1.33       8.37
H      10.90      -2.75       8.09
H      12.20      -0.69       8.69
H      11.36      -0.62      10.25
C      11.47      -0.11      14.05
C      13.69      -2.94       9.15
C      12.18      -1.91      12.52
C      12.18      -0.61      12.86
C      12.90      -2.49      11.39
C      12.77      -2.21      10.07
C      11.73      -1.30       9.47
C      10.53      -2.07       8.87
C       9.72      -2.85       9.90
O      14.66      -3.60       9.64
O      13.45      -2.85       7.88
O      11.73       1.12      14.37
O      10.65      -0.86      14.67
