16

H      26.33      12.82       3.25
H      30.28      10.33       4.88
C      29.22      12.19       4.95
C      27.40      10.96       3.19
C      28.09      12.89       4.48
C      28.51      10.24       3.64
C      27.19      12.27       3.61
C      29.40      10.86       4.51
C      30.25      12.75       5.89
C      26.41      10.33       2.25
O      31.20      11.97       6.24
Cl      27.70      14.52       4.91
O      30.11      13.96       6.26
O      25.43      11.05       1.88
O      26.65       9.12       1.90
H      28.67       9.22       3.31
