14

H       1.16       7.81       8.76
C      -3.36       8.76       9.60
C       5.57       9.18      10.02
C      -1.92       8.66       9.51
C       0.69       8.54       9.42
C       1.52       9.35      10.14
O       6.03       8.26       9.26
C       2.92       9.31      10.11
O       6.22      10.03      10.70
C       4.13       9.27      10.09
C      -0.70       8.61       9.47
F       0.98      10.28      10.98
O      -3.90       9.61       8.82
O      -3.92       7.99      10.44
