23

H       9.94       1.81      11.67
H       9.53       2.03       9.95
H       9.86       3.43      10.98
H       4.10       2.67      12.07
H       6.91       4.37       8.62
H       8.56       4.09       9.22
H       7.71       2.83       8.31
C       5.16       2.62      11.86
C       6.04       2.05      12.79
C       7.42       2.02      12.51
C       7.92       2.53      11.30
C       7.03       3.07      10.35
C       5.64       3.09      10.64
C       8.33       1.38      13.53
C       4.62       3.55       9.64
C       5.47       1.52      13.98
C       9.39       2.44      10.96
C       7.58       3.63       9.06
N       4.93       1.11      14.94
O       4.79       3.23       8.43
O       3.61       4.21      10.11
O       8.00       0.22      13.91
O       9.34       2.05      13.95
