36

O      22.91      10.63      15.91
O      20.69      11.16      15.91
O      22.07       9.79       2.04
O      21.53      12.01       2.04
H      21.45      13.02       4.28
H      22.15       8.78       4.28
H      19.68      11.25      13.67
H      23.92      10.55      13.66
H      21.21      14.25       6.16
O      21.50      13.63       8.08
H      22.39       7.55       6.16
O      22.10       8.17       8.08
O      19.07      11.20       9.86
H      18.45      11.48      11.78
O      24.53      10.60       9.86
H      25.15      10.31      11.78
C      20.62      11.09      13.12
C      22.99      10.70      13.12
C      21.60      12.09       4.83
C      21.99       9.71       4.83
C      21.80      10.90       4.11
C      21.80      10.90      13.83
C      21.80      10.90       9.59
C      21.80      10.90       6.96
C      21.80      10.90      10.98
C      21.43      13.42       6.88
C      21.80      10.90       8.36
C      22.17       8.38       6.88
C      19.28      11.27      11.06
C      24.32      10.53      11.06
C      21.80      10.90      15.32
C      21.80      10.90       2.62
C      21.61      12.11       6.22
C      21.99       9.69       6.22
C      20.59      11.08      11.72
C      23.01      10.71      11.72
