22

H       0.61       6.52      10.15
H      -3.86       9.97       7.62
H       3.12       6.59      10.05
H      -6.37       9.89       7.70
H       3.10      10.06       7.81
H      -6.37       6.52      10.08
H       0.59      10.14       7.78
H      -3.86       6.45      10.14
N       3.18       8.31       8.91
N      -6.44       8.22       8.90
C       1.12       7.32       9.62
C      -4.38       9.19       8.19
C       2.51       7.35       9.57
C      -5.76       9.16       8.22
C       2.50       9.29       8.30
C      -5.76       7.26       9.56
C       1.11       9.34       8.29
C      -4.38       7.23       9.59
C       0.39       8.32       8.95
C      -3.65       8.22       8.90
C      -1.02       8.30       8.94
C      -2.24       8.25       8.92
