23

O      25.29      19.14      12.01
O      27.52      19.40      12.34
O      29.06      13.33      13.25
H      28.37      17.21      13.10
H      27.69      12.68      10.36
H      26.48      12.41      11.64
H      25.95      13.83       8.95
H      24.72      13.54      10.20
H      27.18      20.28      12.60
C      25.00      17.12       9.79
C      26.18      15.14      10.72
C      25.95      16.51      10.77
C      26.75      17.25      11.69
C      27.76      16.61      12.42
C      28.00      15.23      12.34
C      27.16      14.51      11.49
C      26.86      13.14      10.92
C      25.76      13.86      10.03
C      29.11      14.59      13.10
C      26.42      18.67      12.00
O      30.02      15.38      13.53
O      25.32      18.24       9.27
O      23.98      16.41       9.51
