30

C       6.17       8.28      22.21
C       6.14       9.47      21.41
C       6.12       6.86      17.31
C       6.16       6.97      20.12
C       6.22       7.14      24.35
C       6.18       7.02      21.54
O       6.03       8.36      26.37
O       6.39       6.12      26.49
H       6.07       9.01      17.35
H       6.17       4.72      17.51
F       6.12      10.67      22.04
F       6.08      10.56      19.33
H       6.16       9.28      24.14
H       6.28       4.99      24.31
F       6.22       3.32      19.62
F       6.27       3.43      22.33
C       6.09       6.82      15.81
C       6.21       7.21      25.85
O       6.23       5.69      15.25
O       5.94       7.94      15.21
C       6.10       8.10      17.95
C       6.13       8.17      19.35
C       6.12       9.41      20.05
C       6.15       5.67      18.04
C       6.17       5.71      19.44
C       6.21       4.52      20.25
C       6.24       5.90      23.71
C       6.22       5.82      22.32
C       6.23       4.58      21.61
C       6.18       8.33      23.61
