41

C      -0.28      -2.67      15.39
N      -0.72      -3.43      11.20
H       0.08      -4.12      13.03
N      -0.76      -2.21      10.57
H       4.77       3.60      20.54
H       2.25      -0.08      12.37
H       3.77       1.40      16.66
H       3.25      -1.12      20.55
N       2.66       3.48      24.85
H       1.37      -1.42      17.05
H       3.28       0.15      22.65
H       3.10      -1.16      18.24
H       4.73       2.34      18.44
N       2.76       4.58      24.06
H       3.56       0.94      14.20
H      -0.07      -0.27      11.07
H       3.20       1.45      24.65
H      -0.59      -2.50      16.43
H      -1.16      -2.55      14.75
H       0.03      -3.73      15.31
H       3.48       4.95      22.10
C       3.33       4.22      22.89
C       3.60       2.84      22.90
C      -0.08      -3.27      12.38
C       0.32      -1.93      12.54
C      -0.14      -1.31      11.37
C       3.17       2.43      24.18
C       3.94       2.00      21.75
C       4.43       2.56      20.55
C       4.40       1.85      19.36
C       3.90       0.53      19.31
C       3.59      -0.08      20.55
C       3.61       0.64      21.74
C       1.60      -1.16      16.01
C       0.83      -1.73      15.00
C       2.06      -0.38      13.40
C       2.80       0.19      14.43
C       2.61      -0.21      15.76
C       3.48      -0.14      18.09
C       3.36       0.40      16.86
C       1.07      -1.35      13.66
