12

O       8.51       3.86      25.18
C       9.18       5.62      15.50
O       7.32       5.80      25.20
C       8.64       5.33      19.45
O       9.93       4.73      14.98
O       8.73       6.67      14.92
C       8.06       4.92      24.64
C       8.36       5.12      23.24
C       8.46       5.20      22.02
C       8.56       5.27      20.69
C       8.75       5.40      18.12
C       8.86       5.46      16.90
