36

N       3.96       5.01      10.94
N      10.73      10.17      24.58
N       9.73       9.77      25.43
H       3.47       4.77      12.98
H      11.08       9.94      22.51
N       7.48       7.35      17.53
N       6.74       7.21      18.56
H       9.39       7.27      19.06
H       8.35       8.09      15.25
H       7.53       7.39      13.02
H       5.48       5.51      17.15
H       5.49       7.96      20.72
H       4.73       4.71      14.92
H      10.44       7.98      21.21
H       6.52       8.78      22.83
C       5.97       5.83      11.17
C       4.22       5.08      12.26
C       5.50       5.62      12.49
C      10.43       9.72      23.35
C       8.83       9.09      24.70
C       9.21       9.02      23.35
C       6.06       6.00      13.79
C       5.50       5.47      14.98
C       5.92       5.91      16.23
C       6.95       6.87      16.33
C       7.54       7.36      15.16
C       7.09       6.95      13.91
C       8.78       7.61      19.90
C       9.35       8.01      21.09
C       7.38       7.60      19.76
C       8.56       8.46      22.17
C       7.16       8.43      22.02
C       6.58       7.98      20.84
Br       7.64       6.46      10.57
Br       7.32       8.38      25.58
N       5.05       5.47      10.26
