28

Br      12.27      11.75       3.09
Br      14.67       6.75       4.59
Br       9.27      10.91       5.18
Br      11.40       5.65       6.07
O       5.71       8.05       7.97
O       6.46       5.90       8.11
H      16.76       8.12       3.07
H      14.95      11.85       1.90
H       8.74       5.57       7.30
H       7.16       9.52       6.66
O      17.22      11.53       1.08
O      18.21       9.59       1.78
C       6.57       7.12       7.76
C      17.23      10.41       1.71
C      15.98      10.02       2.42
C      15.90       8.79       3.08
C      14.73       8.43       3.73
C      13.60       9.29       3.77
C      13.72      10.54       3.10
C      14.88      10.90       2.42
C      12.41       8.93       4.44
C      11.39       8.61       5.03
C      10.20       8.24       5.70
C      10.02       6.94       6.24
C       8.86       6.58       6.90
C       7.82       7.51       7.05
C       7.96       8.80       6.54
C       9.13       9.16       5.87
