19

N      -3.40      12.13       9.70
C      -5.33      11.12      10.21
C      -3.38       7.54      10.16
N      -4.29      10.50      10.89
C      -4.37       9.30      11.68
H      -6.36      10.79      10.30
C      -3.13      11.15      10.54
H      -2.37       7.93      10.20
C      -5.56       7.38      10.57
C      -3.91       6.49       9.46
C      -4.76      12.13       9.48
H      -5.28       9.33      12.30
H      -3.49       9.25      12.33
H      -2.15      10.87      10.90
H      -6.54       7.60      10.98
H      -3.42       5.80       8.79
N      -5.27       6.41       9.73
H      -5.24      12.85       8.84
N      -4.43       8.10      10.87
