76

H       8.40       2.64       5.78
H       5.77       2.90       5.36
H       4.20      -6.37      10.78
H       6.82      -6.63      11.23
H       0.45      -4.74      12.48
H       4.62      -2.08      12.25
H       7.77      -5.88      13.04
H       9.98      -1.47      12.92
H       2.49      -2.18       3.74
H       4.97       2.07       3.45
H      12.07       1.07       3.90
H       7.97      -1.66       4.32
H       5.07       0.24       7.97
H       7.55      -3.97       8.60
C       7.97       0.50       5.92
C       7.67       1.85       5.87
C       6.27       1.97       5.64
C       5.72       0.71       5.58
C       4.64      -4.22      10.64
C       4.93      -5.57      10.69
C       6.33      -5.71      10.94
C       6.89      -4.44      11.00
C      10.73      -2.88      15.07
C       1.83      -0.82       1.55
C      11.81      -0.66       1.88
C       0.71      -3.07      14.57
C       1.34      -4.11      12.39
C       1.59      -3.15      13.38
C       2.75      -2.36      13.22
C       3.67      -2.61      12.22
C       3.47      -3.64      11.28
C       2.23      -4.32      11.36
C       8.27      -4.92      12.96
C       7.99      -4.06      11.88
C       8.63      -2.81      11.93
C       9.47      -2.43      12.96
C       9.71      -3.28      14.06
C       9.08      -4.53      14.02
C       3.05      -1.25       3.67
C       2.87      -0.44       2.54
C       3.59       0.76       2.52
C       4.41       1.15       3.56
C       4.61       0.33       4.69
C       3.91      -0.89       4.69
C      11.20       0.43       4.04
C      10.93      -0.56       3.07
C       9.80      -1.36       3.28
C       8.91      -1.12       4.31
C       9.13      -0.08       5.23
C      10.34       0.62       5.10
C       5.62      -0.69       8.09
C       6.51      -1.09       7.08
C       7.19      -2.29       7.33
C       7.00      -3.04       8.48
C       6.10      -2.64       9.49
C       5.43      -1.43       9.24
N       6.73      -0.23       5.94
N       5.88      -3.50      10.63
O      10.78      -3.40      16.23
O      11.56      -2.02      14.60
O       1.76      -0.30       0.39
O      12.55       0.34       1.63
O      -0.03      -4.08      14.81
O       0.76      -2.00      15.27
O      11.80      -1.76       1.22
O       1.01      -1.71       2.01
F       1.96      -5.30      10.45
F       3.07      -1.40      14.12
F       9.23      -5.41      15.05
F       8.42      -1.90      10.93
F       4.06      -1.75       5.74
F       3.50       1.60       1.45
F      10.63       1.62       6.00
F       9.47      -2.34       2.41
F       4.54      -0.94      10.15
F       8.08      -2.79       6.42
