16

O      24.32       8.57      25.43
O      27.82      10.86      31.45
O      22.74       8.60      27.06
C      27.76      11.32      30.26
C      24.88       9.46      27.54
C      26.78      10.68      29.33
C      24.74       9.38      28.94
F      26.22      10.34      25.75
C      26.92      10.76      27.93
C      26.00      10.18      27.06
F      27.97      11.39      27.37
C      25.66       9.98      29.80
F      23.73       8.71      29.50
F      25.41       9.86      31.12
C      23.90       8.83      26.60
O      28.47      12.27      29.78
