20

S      22.07      13.40      18.38
S      21.34      13.87      22.46
H      19.29      14.76      19.54
S      24.47      12.31      21.87
H      24.87      10.20      21.47
C      24.46      12.10      18.38
O      25.28      11.29      18.93
C      18.83      15.03      22.37
O      24.42      12.42      17.14
O      17.80      15.41      21.72
O      18.99      15.06      23.64
C      23.30      12.81      20.61
C      20.07      14.41      20.22
C      23.42      12.71      19.22
C      19.96      14.49      21.60
C      21.30      13.81      19.86
C      22.09      13.45      20.98
O      24.21      10.75      21.97
O      25.82      12.57      21.46
O      23.95      12.87      23.08
