30

O      18.02       8.14      18.99
O      16.53       7.21      17.54
H      12.82      10.62      20.76
H      14.36      11.58      18.57
H      15.00       7.28      20.82
H      16.75      10.74      19.88
H      10.75       7.46      18.64
H      17.35       6.76      17.23
C      14.51      10.63      19.08
C      13.66      10.11      20.28
C      15.65      10.19      23.52
C      13.71       8.82      15.85
C      15.82      10.17      19.79
C      14.97       9.65      21.03
C      15.72       8.77      19.11
C      14.39       9.22      18.36
C      14.86       8.24      20.33
C      13.55       8.68      19.61
C      15.31       9.91      22.38
C      14.05       9.01      17.01
C      13.04       8.46      14.64
C      16.25      10.66      24.73
C      12.31       7.88      19.64
C      16.89       8.03      18.56
O      13.33       7.33      14.12
O      12.16       9.27      14.20
O      17.10       9.89      25.30
O      15.95      11.84      25.11
O      11.96       7.24      20.62
O      11.58       7.97      18.50
