20

H       0.95      16.90       4.35
C       0.71      13.69       5.29
H       1.09      15.49       3.30
C       0.72      15.70       6.64
C       0.63      15.86       4.23
H      -1.12      13.21       6.44
H      -1.33      13.09       4.69
H      -1.25      15.09       3.37
N      -1.37      15.05       5.46
H      -1.42      16.67       4.12
H      -1.17      16.83       6.53
C      -0.83      13.66       5.48
N       1.20      15.09       5.36
H      -1.27      15.38       7.54
C      -0.90      15.71       4.20
C      -0.82      15.80       6.62
H       1.01      13.28       4.32
H       1.23      13.10       6.06
H       1.09      15.06       7.46
H       1.20      16.68       6.74
