16

O       4.61       3.76       3.29
C       3.36       5.22      -1.33
C       4.56       4.94       0.75
O       2.17       5.82      -3.29
H       5.46       5.05       1.35
O       4.42       6.14      -3.23
C       2.21       4.64      -0.75
H       1.31       4.53      -1.36
C       2.25       4.21       0.57
H       1.38       3.74       1.03
C       4.53       5.37      -0.57
H       5.40       5.84      -1.03
C       3.47       3.83       2.72
O       2.36       3.44       3.23
C       3.31       5.75      -2.72
C       3.42       4.36       1.33
