32

H       6.71       6.14       4.83
H       6.94       6.00       2.34
H       2.82       4.74       2.11
H       7.20       4.65      -2.01
H       3.24       5.87      -4.74
H       3.07       5.88      -2.25
H       2.20       5.01       5.65
H       1.54       4.63       4.08
H       7.77       4.73      -5.59
H       8.43       4.33      -4.02
C       5.27       5.18      -6.25
C       4.66       5.59       6.35
C       4.68       5.49       4.89
C       5.88       5.81       4.22
C       6.01       5.73       2.84
C       4.88       5.34       2.07
C       3.68       5.04       2.71
C       3.54       5.10       4.11
C       4.97       5.28       0.66
C       5.05       5.25      -0.56
C       5.13       5.24      -1.98
C       6.33       4.92      -2.61
C       6.45       4.92      -4.02
C       5.29       5.24      -4.79
C       4.09       5.59      -4.13
C       3.99       5.59      -2.75
N       2.34       4.77       4.67
N       7.63       4.57      -4.59
O       6.41       5.24      -6.87
O       5.75       5.85       6.97
O       3.53       5.42       6.95
O       4.15       5.05      -6.85
