23

N      13.94      11.13      10.34
N      16.13      11.24      10.07
N      13.92      11.03      12.71
H      12.87      10.97      12.64
H      14.84      11.11       8.46
N      14.96      11.20       9.48
N      15.94      11.21      11.37
O      11.63       9.82      16.95
H      16.58      10.97      13.58
H      12.42      10.56      14.74
H      15.53      10.04      17.66
C      12.83      10.08      17.34
O      17.86       9.73      17.11
O      13.09      10.19      18.58
O      18.52      10.90      15.29
C      14.58      11.12      11.55
C      15.81      10.78      14.33
C      14.44      10.80      14.00
C      13.48      10.55      14.99
C      15.23      10.25      16.64
C      16.19      10.47      15.64
C      13.88      10.30      16.30
C      17.64      10.39      16.01
