30

C       9.46       4.20      25.36
C       9.44       2.82      25.36
O       7.40      -6.81      25.55
O       9.66      -6.75      25.54
O       9.46       7.02      25.42
O       7.22       7.08      25.31
C       9.56      -2.53      25.42
H       6.32      -4.68      25.35
H       6.16      -2.18      25.26
H      10.47      -1.94      25.45
O      10.87      -4.49      25.53
H      10.42       4.72      25.34
H      10.36       2.24      25.35
H       6.04       2.37      25.38
O       5.85       4.93      25.36
H      10.70      -5.48      25.57
H       6.09       5.90      25.32
C       8.50      -6.18      25.52
C       8.46      -4.71      25.45
C       8.33       6.43      25.37
C       7.21      -4.05      25.37
C       8.31      -1.90      25.36
C       7.12      -2.68      25.32
C       9.65      -3.93      25.46
C       8.23      -0.49      25.35
C       8.18       0.73      25.36
C       8.19       2.14      25.37
C       7.00       2.88      25.37
C       7.03       4.28      25.37
C       8.28       4.96      25.37
