16

C      -3.62       5.59      10.68
H      -4.42       2.64       9.16
C      -5.60       3.61      10.68
C      -3.51       4.49       9.82
O      -2.72       7.62      11.49
O      -6.50       1.59       9.86
C      -2.57       6.65      10.68
C      -6.65       2.56      10.68
O      -1.60       6.49       9.86
H      -6.57       4.78      12.20
H      -2.65       4.42       9.16
O      -7.62       2.71      11.49
C      -5.71       4.72      11.54
C      -4.73       5.70      11.54
H      -4.80       6.56      12.20
C      -4.49       3.50       9.82
