16

C      24.64      27.25       9.48
C      22.54      27.87      10.63
C      18.82      27.72       9.68
C      21.16      28.02      10.73
C      20.92      27.09       8.53
C      22.30      26.94       8.43
H      20.28      26.78       7.70
Cl      22.91      26.19       6.98
Cl      20.54      28.75      12.18
O      18.28      28.08       8.58
O      25.18      26.98      10.60
O      25.24      27.49       8.39
O      18.22      27.41      10.75
H      23.18      28.18      11.45
C      20.32      27.63       9.67
C      23.14      27.33       9.49
