22

Br      -3.94      12.08       8.78
O      -6.72      13.86       9.17
H      -3.14      10.61      11.17
H      -6.43       9.74      14.63
H      -8.80      10.29      14.91
H      -9.98      11.70      13.21
H      -8.80      12.44      11.20
O      -2.97       9.06      13.07
O      -4.26       9.89      14.73
O      -7.91      11.94       8.96
C      -3.96       9.76      13.50
C      -7.00      12.64       9.48
C      -6.93      10.33      13.87
C      -8.26      10.65      14.03
C      -8.93      11.44      13.07
C      -8.26      11.87      11.95
C      -6.89      11.55      11.74
C      -6.20      10.78      12.74
C      -4.81      10.46      12.50
C      -4.19      10.87      11.33
C      -4.88      11.62      10.37
C      -6.21      11.96      10.55
