26

C      -1.50       4.39      11.99
H      -3.39       8.39      12.87
H      -2.60       9.49      10.78
H      -0.66       5.75       9.79
H      -2.44       3.83      12.05
H      -0.85       3.91      11.25
H      -1.03       4.33      12.98
C      -1.13       9.55       6.86
C      -1.73       9.08       8.02
C      -0.96       8.29       8.88
C       0.37       8.05       8.54
C       0.92       8.57       7.37
C       2.35       8.33       7.00
H      -1.70      10.13       6.13
H      -2.77       9.31       8.22
H       1.01       7.46       9.20
H       2.88       9.29       6.95
H       2.84       7.70       7.75
H       2.42       7.87       6.01
C      -2.35       8.45      10.97
C      -1.53       7.70      10.11
C      -2.80       7.84      12.14
N      -2.52       6.56      12.47
N       0.15       9.30       6.53
C      -1.26       6.37      10.45
C      -1.77       5.81      11.63
