16

C      18.60       3.06       1.93
S      20.08       7.47       4.70
S      17.08       5.00       3.15
C      17.46       7.43       4.68
C      19.70       5.04       3.17
C      18.54       8.17       5.14
C      18.62       4.30       2.71
Cl      15.80       7.79       4.91
C      17.88       6.29       3.96
C      19.28       6.18       3.89
Cl      21.36       4.69       2.95
O      17.44       9.92       6.24
O      19.73       9.89       6.19
O      17.43       2.61       1.64
O      19.72       2.55       1.60
C      18.57       9.42       5.92
