20

H       6.46       4.00       8.45
H      10.02       2.56       6.91
N       8.28       3.34       7.70
H       9.14       0.21       6.81
H       7.60      -1.25       5.80
H       6.62      -3.56       5.92
N       5.63      -3.21       7.69
H       5.58      -0.38       9.52
H       4.70      -2.73       9.48
H       5.42       1.72       8.43
C       6.45       1.85       8.11
C       7.02       3.12       8.12
C       9.01       2.31       7.23
C       8.51       1.02       7.18
C       7.21       0.76       7.64
C       6.97      -1.53       6.64
C       6.43      -2.81       6.69
C       5.34      -2.34       8.68
C       5.83      -1.05       8.70
C       6.66      -0.61       7.66
