13

H      11.44       9.76      14.51
C      13.80      10.56      13.17
C      13.80      10.56      18.52
C      12.28      10.04      15.14
S      14.63      10.82      15.85
H      11.44       9.76      17.18
C      13.49      10.45      14.61
C      13.49      10.45      17.08
O      14.99      10.86      12.82
O      14.99      10.86      18.87
C      12.28      10.04      16.55
O      12.82      10.35      12.38
O      12.82      10.35      19.31
