26

O       2.58       7.64       0.88
O       1.59       6.80      -0.99
H       2.34       4.45       1.26
H       3.49       5.52       2.06
H       5.04       3.78       2.11
H       3.89       2.72       1.27
O       7.35       2.86       0.71
O       6.00       1.53      -0.54
H       6.62       5.23       0.78
H       6.63       5.17      -0.98
H       5.05       6.96       0.70
H       5.04       6.86      -1.07
H       4.98       3.63      -2.20
H       3.88       2.62      -1.27
H       2.29       4.33      -1.29
H       3.37       5.33      -2.24
C       2.48       6.79      -0.07
C       6.29       2.64       0.03
C       3.36       4.85       1.20
C       4.40       3.70       1.22
C       5.27       3.76      -0.06
C       5.98       5.13      -0.10
C       4.93       6.27      -0.15
C       3.50       5.67      -0.10
C       3.30       4.74      -1.31
C       4.36       3.61      -1.29
