38

Br       9.60       7.43       2.01
Br       5.63      10.44      -5.40
N       3.96       5.64       6.03
N       4.97       6.41       6.52
H       3.65       4.60       4.20
N       7.93      12.03      -5.64
N       9.24      12.08      -5.23
H       5.65       7.91      -1.72
H       9.08       8.79      -0.39
H       7.37       9.24      -0.34
H       7.30       8.27       1.76
H       8.51       5.51      -2.17
H       9.65       6.41      -1.15
H       7.47       4.50      -0.31
H       6.07       6.25      -2.16
H       5.32       5.62      -0.05
H       8.90       5.03       0.60
H       6.88       7.00       5.80
C       9.52      11.02      -4.46
C       8.37      10.21      -4.31
C       4.32       5.20       4.80
C       5.60       5.69       4.49
C       6.27       7.05      -1.43
C       5.97       6.44       5.63
C       8.06       8.39      -0.29
C       7.87       7.67       1.05
C       6.26       5.65       3.24
C       7.76       7.43      -1.47
C       7.43      10.93      -5.08
C       5.90       6.55      -0.02
C       7.17       6.31       0.85
C       8.07       5.38      -0.02
C       8.59       6.14      -1.27
C       6.77       5.78       2.14
C       8.05       8.18      -2.68
C       8.20       9.09      -3.48
Br      11.23      10.74      -3.76
Br       4.62       7.81       0.86
