50

O       9.97       5.17      10.68
O       8.32       4.51      12.00
O       4.58      -5.01       7.90
O       6.10      -5.56       6.40
H       8.75       2.05      10.66
H       5.87      -2.48       7.62
H       7.90       4.21       5.23
H       6.76       5.35       3.35
H       4.57       6.50       3.74
H       3.54       6.48       5.99
H       4.68       5.33       7.88
H      11.27      -4.64       9.04
H      13.00      -5.69      10.48
H      12.38      -6.62      12.69
H      10.02      -6.48      13.49
H       8.28      -5.45      12.05
C       8.28       2.55       9.83
C       6.68      -2.96       8.18
C       8.22       3.94       9.77
C       6.77      -4.34       8.25
C       7.04       3.98       7.78
C       8.64      -4.32       9.61
C       7.07       2.59       7.77
C       8.63      -2.92       9.55
C       7.69       1.83       8.78
C       7.66      -2.20       8.83
C       7.68       0.42       8.78
C       7.66      -0.79       8.79
C       6.37       4.70       6.67
C       6.94       4.69       5.39
C       6.30       5.34       4.34
C       5.08       5.99       4.56
C       4.49       5.98       5.83
C       5.13       5.34       6.89
C       9.66      -5.00      10.45
C      11.00      -5.04      10.01
C      11.97      -5.63      10.82
C      11.62      -6.16      12.07
C      10.29      -6.09      12.51
C       9.31      -5.51      11.70
N       7.65       4.66       8.80
N       7.70      -5.03       8.92
N       6.38       1.85       6.69
N       9.65      -2.15      10.29
N       8.89       4.63      10.91
N       5.73      -5.06       7.46
O       5.15       1.79       6.76
O       7.10       1.33       5.83
O       9.43      -1.96      11.49
O      10.60      -1.73       9.62
