15

N       6.49       5.34       9.24
C       4.67       5.85       7.74
C       4.67       3.77       8.94
H       6.41       7.08       8.14
H       6.41       3.50      10.20
O       4.64       7.79       6.28
O       4.64       1.54       9.89
C       4.04       4.65       8.05
H       3.10       4.38       7.59
O       2.94       6.38       6.20
O       2.94       2.18       8.63
C       4.06       6.72       6.70
C       4.06       2.44       9.17
C       5.89       6.15       8.36
C       5.89       4.17       9.51
