24

H       4.43      10.90       7.53
H       4.32      13.39       7.54
H       7.41      13.33      10.60
F       7.53      10.75      10.56
H       6.70      17.56      10.11
H       6.60      20.05      10.12
H       6.61      15.45       9.90
H       4.42      15.51       7.74
F       3.57      20.22       7.02
H       3.64      17.64       7.02
C       5.07      11.50       8.18
C       5.02      12.88       8.20
C       5.86      13.60       9.08
C       6.73      12.85       9.89
C       6.70      11.47       9.79
C       5.89      15.05       9.18
C       5.13      15.91       8.46
C       4.32      18.11       7.73
C       5.17      17.36       8.56
C       6.01      18.08       9.44
C       5.97      19.46       9.46
C       4.37      19.50       7.82
N       5.91      10.79       8.97
N       5.15      20.17       8.65
