28

C       8.27       8.74       6.05
C       8.26       8.76       7.27
C       8.26       8.80       8.67
C       9.42       8.56       9.42
C       9.42       8.62      10.81
C       8.25       8.91      11.53
C       7.08       9.14      10.79
C       7.08       9.08       9.40
F      10.61       9.36       1.92
F       5.96       8.20       1.89
F       5.97       8.18       4.55
F      10.59       9.29       4.58
F      10.57       8.27       8.78
F       5.94       9.33       8.73
F       5.92       9.45      11.39
F      10.58       8.34      11.44
C       8.25       8.99      13.04
C       8.27       8.85       0.28
O       7.20       8.63      13.64
O       9.33       9.40      13.57
O       9.33       8.50      -0.32
O       7.19       9.25      -0.26
C       8.28       8.79       1.78
C       9.45       9.04       2.53
C       9.45       9.02       3.92
C       8.28       8.74       4.65
C       7.11       8.47       3.90
C       7.12       8.50       2.51
