32

H       6.17       6.36      16.48
H       8.76       9.80      22.33
H       6.16       6.36      22.32
H       8.77       9.80      16.48
C       7.47       8.08      12.31
C       7.46       8.08      26.50
C       6.74       7.12      14.55
C       8.19       9.04      24.26
C       6.74       7.12      24.26
C       8.19       9.04      14.55
C       6.73       7.11      15.94
C       8.20       9.05      22.87
C       6.73       7.11      22.87
C       8.20       9.05      15.94
C       7.47       8.08      16.64
C       7.46       8.08      22.17
C       7.47       8.08      13.81
C       7.46       8.08      24.99
C       7.46       8.08      20.70
C       7.47       8.08      18.11
N       8.23       9.00      18.75
N       6.70       7.16      20.06
N       8.23       9.00      20.06
N       6.70       7.16      18.74
Cl       5.85       5.89      13.72
Cl       9.08      10.28      25.09
Cl       5.85       5.89      25.09
Cl       9.08      10.28      13.72
O       6.34       8.23      11.75
O       8.59       7.94      27.06
O       6.34       8.22      27.06
O       8.60       7.94      11.75
