62

H       7.19       4.03      22.36
H       6.36       6.99      15.89
H       2.72       4.75      16.27
H       2.66       8.98      24.92
H       2.62       8.96      22.39
H       5.51       8.23      29.13
H       5.33       7.80      31.58
H       3.91       4.32      28.34
H       6.41       7.32      18.38
H       3.01       2.74      18.62
H       3.77       3.43      20.06
H       2.05       2.99      20.10
H       2.24       5.47      19.85
H       1.54       4.77      18.40
H       5.33       2.32      30.23
H       5.43       2.84      31.93
H       4.36       1.50      31.47
H       3.03       3.59      31.84
H       2.91       3.06      30.16
C       6.58       4.74      22.92
C       6.66       4.78      24.33
C       5.85       5.66      25.07
C       4.97       6.52      24.37
C       4.11       7.42      25.06
C       3.29       8.30      24.35
C       3.27       8.29      22.95
C       5.87       5.70      26.56
C       4.02       7.40      26.54
C       5.12       7.28      29.50
C       4.42       5.60      32.82
C       5.02       7.03      30.86
C       4.52       5.81      31.33
C       4.10       4.81      30.43
C       4.21       5.08      29.06
C       4.72       6.29      28.61
C       5.61       6.76      17.90
C       5.58       6.57      16.53
C       4.55       5.83      15.95
C       3.53       5.31      16.75
C       3.54       5.46      18.14
C       4.60       6.19      18.69
C       4.56       5.62      14.46
C       3.96       7.32      20.77
C       5.63       5.46      20.76
C       5.72       5.58      22.24
C       4.91       6.50      22.95
C       4.05       7.38      22.25
C       2.47       4.83      18.99
C       2.85       3.42      19.48
C       3.60       3.47      30.91
C       4.75       2.47      31.15
N       4.72       6.32      20.13
N       4.86       6.47      27.18
Cl       7.78       3.68      25.04
O       6.30       4.65      20.13
O       6.68       5.08      27.25
O       3.25       8.11      27.17
O       3.29       5.85      33.34
O       5.47       5.23      33.42
O       3.48       5.25      13.89
O       5.67       5.85      13.88
O       3.24       8.08      20.12
