28

O       5.02       5.92       6.50
O       5.19       8.18       6.55
O       5.62      10.57      -6.36
O       6.53       8.50      -6.43
H       4.08       8.86       4.42
H       4.17       9.10       1.91
H       5.77      10.88      -1.34
H       4.95       6.73      -2.12
C       5.18       7.05       5.96
C       5.95       9.46      -5.84
C       5.31       7.11       4.46
C       4.64       8.15       3.81
C       4.69       8.29       2.43
C       5.42       7.37       1.66
C       6.10       6.31       2.30
C       6.06       6.19       3.70
C       5.66      10.06      -2.06
C       5.40       8.77      -1.58
C       5.20       7.72      -2.49
C       5.30       7.98      -3.85
C       5.66       9.25      -4.37
C       5.79      10.29      -3.42
Br       7.09       4.84       4.54
Br       7.13       5.14       1.23
Br       6.20      12.09      -3.88
Br       4.83       6.51      -4.98
N       5.49       7.47       0.25
N       5.38       8.65      -0.18
