20

C       5.40      15.18       4.60
C       5.45      20.81       7.08
H       5.81      14.45       7.76
C       5.44      19.42       7.06
C       5.64      18.73       5.86
H       5.91      16.95       7.94
H       5.33      17.09       3.66
C       5.84      19.51       4.71
H       5.21      14.59       3.69
C       5.82      20.90       4.80
H       5.27      21.37       7.99
H       5.26      18.89       7.99
H       6.03      19.06       3.74
H       5.97      21.53       3.92
N       5.51      14.45       5.73
N       5.63      21.55       5.96
C       5.70      15.10       6.89
C       5.76      16.48       6.97
C       5.63      17.26       5.81
C       5.46      16.56       4.60
