28

C       7.79       8.05       7.92
C       7.60       8.28       4.97
H       4.30       4.53       3.89
H       2.96       2.87       5.12
H       4.28       4.49       8.89
H       2.94       2.85       7.62
H       6.32       9.23       8.37
H       5.96       9.03       4.25
O       6.97       6.24       9.93
C       5.88       6.44       9.32
O       4.75       6.69       9.85
C       5.84       6.52       3.51
O       4.71       6.77       2.97
O       6.93       6.31       2.91
O       7.29       9.17       8.53
O       8.96       7.77       8.05
O       6.93       9.19       4.20
O       8.82       8.32       5.03
C       5.88       6.46       5.01
C       5.07       5.50       5.69
C       6.74       7.29       5.71
C       4.29       4.53       4.98
C       3.54       3.61       5.67
C       5.92       6.39       7.82
C       6.79       7.23       7.13
C       5.07       5.48       7.12
C       4.28       4.51       7.80
C       3.53       3.60       7.09
