64

H       2.22       4.45      22.77
H       3.71       6.20      21.81
H       7.00       3.42      21.99
H       8.40       6.45      20.13
H       9.90       8.14      19.03
H       9.61      12.85      17.54
H      11.05      14.52      16.33
H       8.81      14.75      14.46
H      10.27      16.50      13.45
H       5.49      17.50      14.32
H       8.07      12.06      15.01
H       8.82       9.70      15.25
H       7.37       8.04      16.42
H       5.19       8.75      17.38
H       7.54      12.29      19.35
H       5.36      13.00      20.31
H       3.87      11.32      21.39
H       4.55       8.94      21.52
C       2.81       2.01      23.56
C       3.75       2.95      22.93
C       3.27       4.24      22.59
C       4.09       5.21      22.06
C       5.46       4.90      21.86
C       5.95       3.63      22.16
C       5.13       2.62      22.69
C       6.86       7.88      20.57
C       8.11       7.50      20.05
C       8.93       8.43      19.44
C       8.54       9.77      19.33
C      11.00      11.24      17.30
C      10.58      12.57      17.13
C      11.37      13.48      16.45
C       5.75      13.10      15.93
C       7.05      16.03      14.44
C       8.42      15.74      14.21
C       9.22      16.71      13.66
C       8.72      17.99      13.32
C       9.66      18.94      12.69
C       7.35      18.30      13.57
C       6.54      17.29      14.13
C       6.21      11.75      16.05
C       7.45      11.32      15.52
C       7.85      10.01      15.65
C       7.04       9.07      16.32
C       5.82       9.46      16.85
C       5.38      10.80      16.73
C       7.30      10.22      19.89
C       6.89      11.57      19.83
C       5.68      11.96      20.37
C       4.83      11.01      20.98
C       5.20       9.68      21.06
C       6.44       9.25      20.52
N       6.42       5.81      21.37
N       5.95       6.97      21.12
N       9.32      10.74      18.70
N      10.24      10.28      17.95
N       6.62      14.00      15.31
N       6.12      15.13      14.98
O      10.84      18.59      12.38
O       9.25      20.15      12.46
O       6.78      19.49      13.31
O       1.62       2.37      23.86
O       3.21       0.81      23.83
O       5.69       1.43      22.97
