20

H       6.17       4.46       4.88
H       6.08       3.13       2.77
H       1.97       0.42       4.84
H       1.03       1.55       3.81
H       1.08       3.22       5.72
C       4.37       4.48       6.93
C       3.22       2.90       5.33
C       4.30       3.73       5.64
C       5.33       3.80       4.68
C       5.27       3.06       3.50
C       4.19       2.20       3.20
C       3.18       2.14       4.16
C       1.86       1.47       4.53
C       1.85       2.44       5.76
C       4.17       1.42       1.94
O       3.27       4.62       7.56
O       5.52       4.89       7.30
O       3.04       0.94       1.58
O       5.27       1.30       1.31
F       1.73       1.84       7.03
