16

O       7.53       7.63      17.01
O       7.40       8.94      18.88
Br       7.28       7.87      21.76
C       7.46       7.82      18.28
S       7.54       5.06      18.31
S       7.36       4.32      22.41
C       7.45       1.55      22.40
O       7.36       1.70      23.67
C       7.38       6.48      20.50
C       7.52       2.88      20.22
C       7.45       6.61      19.11
C       7.45       2.79      21.60
C       7.49       4.23      19.82
C       7.41       5.13      20.90
H       7.57       2.01      19.58
O       7.53       0.45      21.76
