38

C      14.98       2.25       5.85
C      13.47       0.83       4.82
C      13.90      -0.26       5.57
C      14.92      -0.07       6.50
C      15.47       1.22       6.63
C      15.29      -2.46       7.15
C      16.04      -3.28       8.15
C      16.33      -2.86       9.46
C      17.06      -3.69      10.31
C      17.49      -4.94       9.87
C      17.16      -5.39       8.58
C      16.44      -4.55       7.72
C      16.68      -9.91       4.53
C      16.42      -8.76       5.25
C      17.26      -8.43       6.34
C      18.34      -9.28       6.62
C      18.52     -10.40       5.83
C      17.60      -6.77       8.18
H      16.09      -0.79       8.03
H      16.19      -6.72       6.69
H      15.39       3.25       5.90
H      12.68       0.71       4.08
H      13.46      -1.24       5.41
H      16.28       1.43       7.33
H      15.94      -1.92       9.85
H      17.26      -3.39      11.34
H      18.06      -5.60      10.52
H      16.20      -4.81       6.70
H      16.03     -10.21       3.70
H      15.56      -8.14       4.99
H      19.03      -9.06       7.43
H      19.36     -11.07       6.01
N      13.98       2.07       4.95
N      15.43      -1.08       7.31
N      17.71     -10.74       4.80
N      16.98      -7.26       7.04
O      14.64      -2.97       6.23
O      18.44      -7.40       8.82
