27

C       3.29       3.39      17.55
C       0.25       6.91      19.77
O       1.30       8.39      12.55
O      -0.93       8.20      12.94
H       3.08       3.49      20.44
H       2.74       7.20      14.08
H       3.32       6.08      16.22
N       2.53       4.12      19.80
N       1.72       5.03      20.40
H      -0.88       5.79      17.18
H      -1.43       6.92      15.02
H       2.93       3.49      16.52
H       3.20       2.33      17.83
H       4.36       3.64      17.55
H       0.82       7.74      20.20
H      -0.27       7.28      18.88
H      -0.51       6.62      20.52
C       0.28       7.95      13.21
C       0.62       7.15      14.43
C       1.95       6.88      14.76
C       2.27       6.25      15.96
C       1.26       5.88      16.87
C      -0.08       6.11      16.51
C      -0.40       6.73      15.30
C       1.61       5.32      18.17
C       2.50       4.26      18.45
C       1.15       5.77      19.43
