44

N       3.42      -0.99      11.62
N       9.18      -4.97      10.53
O       6.94     -11.17       7.43
O       8.33     -11.86       9.03
O      15.04      -0.72      11.98
O      15.52      -2.06      10.21
C       5.74      -2.55      11.28
C       4.58      -0.64      12.21
C       7.73      -9.54       8.97
C       7.85      -6.88       9.90
C       5.74      -1.39      12.07
C       8.99      -7.70       9.91
C       6.65      -7.42       9.41
H       9.93      -7.28      10.27
H       4.57       0.27      12.81
H       5.82      -5.16      10.56
C       8.93      -9.02       9.48
H       6.64      -1.07      12.60
C       6.80      -4.72      10.65
C       7.95      -5.48      10.37
H       8.38      -1.85      11.53
C       8.23      -2.89      11.25
H       5.75      -6.81       9.37
H       9.81      -9.66       9.52
C       6.93      -3.39      11.07
H       4.44      -3.74       9.99
C       7.67     -10.94       8.47
C       4.52      -2.89      10.66
H       5.67      -9.11       8.50
H       2.43      -2.34      10.40
C       9.33      -3.71      10.97
H      13.85      -3.85       9.87
C       6.60      -8.72       8.92
H      11.52      -4.76       9.83
H      12.60      -0.73      12.53
C       3.40      -2.11      10.86
H      10.27      -1.58      12.46
C      14.74      -1.65      11.11
C      13.06      -3.37      10.44
C      11.76      -3.87      10.41
C      10.72      -3.21      11.10
C      11.04      -2.08      11.88
C      12.35      -1.60      11.93
C      13.36      -2.22      11.19
