36

C      -3.17      11.23       4.20
C      -3.39      12.27       3.31
C      -2.76      13.50       3.53
C      -1.95      13.65       4.66
C      -1.81      12.57       5.53
C      -2.97      14.62       2.59
C      -4.24      15.62       1.00
C      -2.30      16.57       1.66
C      -1.33      17.69       1.58
H      -8.23      13.82      -0.61
H      -6.19      13.74       0.87
C      -1.55      18.75       0.71
C      -0.20      17.73       2.41
C      -0.66      19.82       0.71
C       0.64      18.83       2.36
H      -5.11      17.62      -0.64
H      -7.20      17.56      -2.06
N      -7.76      15.67      -1.41
N      -2.40      11.38       5.30
H      -3.61      10.24       4.07
N      -3.35      16.61       0.84
N      -4.08      14.58       1.83
H      -4.01      12.12       2.43
H      -1.46      14.60       4.86
H      -1.24      12.66       6.45
N      -2.07      15.61       2.57
H      -2.42      18.76       0.05
H       0.00      16.90       3.09
H      -0.79      20.69       0.05
N       0.40      19.87       1.54
H       1.53      18.92       2.99
C      -7.50      14.63      -0.59
C      -6.39      14.60       0.24
C      -5.49      15.67       0.21
C      -5.78      16.77      -0.61
C      -6.92      16.73      -1.40
