26

C       9.99       0.44       2.33
H      12.27       3.71      10.07
H       8.00       2.28       6.13
H       7.93       1.49       3.77
H      12.17       2.99       7.69
H      12.17       1.21       6.34
H      12.10       0.51       3.95
H       8.13       1.61       8.28
H       8.21       2.44      10.64
O      11.10       0.17       1.79
O       8.84       0.26       1.78
O       9.14       3.85      12.43
O      11.41       3.95      12.38
C      10.25       3.11      10.49
C      11.37       3.25       9.66
C      11.31       2.83       8.34
C      10.15       2.25       7.81
C       9.03       2.10       8.66
C      10.26       3.66      11.87
C       9.08       2.54       9.98
C       8.90       1.87       5.66
C       8.85       1.45       4.34
C      11.21       0.91       4.44
C      11.25       1.31       5.77
C      10.09       1.81       6.41
C      10.01       0.97       3.72
