22

H       0.14       7.72       5.67
H       0.54      12.68       5.63
C       2.05       7.16       7.32
C       2.23      12.98       7.51
C       2.10       8.66       7.35
C       1.20       9.42       6.53
C       3.01       9.30       8.17
C       0.24       8.80       5.69
C      -0.62       9.55       4.92
C       2.22      11.48       7.42
C       3.07      10.73       8.22
C       1.29      10.85       6.55
C       0.44      11.59       5.69
C      -0.51      10.97       4.91
Cl       4.16      11.49       9.31
Cl       4.03       8.41       9.24
Cl      -1.82       8.77       3.97
Cl      -1.55      11.94       3.93
O       3.13       6.56       7.01
O       3.31      13.58       7.23
O       1.13      13.54       7.82
O       0.95       6.60       7.62
