57

H       1.93       1.83       1.11
H       2.01       6.13       1.04
H       1.76       4.04       4.79
H       0.84      -1.73       3.59
H       0.78       0.39       2.31
H       2.96       2.33       5.48
H       3.02       2.09      -0.74
H       0.91       5.79      -3.26
H       0.84       5.80      -0.79
H       0.79       7.56       2.15
H       2.79       7.99       6.65
H       2.93       5.82       5.46
H       2.58       0.96       7.86
H       3.10      -0.72       7.67
H       4.15       0.59       7.14
H       2.79       0.73      -2.96
H       2.97       1.67      -4.46
H       4.27       1.67      -3.26
H      -0.51      10.23       3.44
H       1.07      10.97       3.20
H       0.44       9.81       1.99
C       2.02       3.96      -4.88
C       1.61      10.22       5.91
C       1.93      -2.19       5.99
C       1.94       3.98       0.90
C       1.92       2.78       1.64
C       1.89       2.79       3.04
C       1.85       4.02       3.71
C       1.88       5.23       3.00
C       1.94       5.19       1.60
C       1.32      -0.84       3.99
C       1.30       0.35       3.27
C       1.88       1.52       3.80
C       2.46       1.44       5.07
C       2.49       0.26       5.82
C       1.92      -0.89       5.26
C       2.54       2.90      -1.29
C       2.56       2.85      -2.68
C       2.00       3.93      -3.39
C       1.40       4.99      -2.70
C       1.37       5.00      -1.31
C       1.96       3.96      -0.58
C       1.23       7.65       3.14
C       1.13       8.88       3.79
C       1.68       8.98       5.10
C       2.33       7.87       5.67
C       2.39       6.66       5.00
C       1.83       6.52       3.72
C       3.11       0.26       7.20
C       3.18       1.67      -3.39
C       0.50      10.03       3.07
O       2.87      -3.01       5.72
O       2.97       4.59      -5.46
O       2.51      10.40       6.79
O       0.99      -2.41       6.82
O       0.64      11.03       5.70
O       1.08       3.34      -5.49
