30

C       7.14       3.48       8.78
C       9.51      -3.58      10.39
C       7.03       4.86       8.81
C       9.60      -4.97      10.33
C       8.16       0.67       8.37
C       8.62      -0.73      10.73
C       8.31      -0.71       8.34
C       8.47       0.65      10.76
H       9.27       5.69      11.06
C       8.23       1.37       9.58
H       9.59       3.20      11.12
C       8.54      -1.44       9.52
H       6.49       2.90       8.12
H      10.11      -3.04      11.12
H       6.31       5.40       8.20
H      10.24      -5.53      11.01
H       8.01       1.22       7.44
H       8.77      -1.27      11.67
H       8.29      -1.23       7.38
H       8.51       1.18      11.72
H       7.30      -3.21       7.83
N       7.79       5.62       9.62
N       8.92      -5.69       9.43
H       7.60      -5.69       7.84
C       8.68       5.02      10.43
C       8.13      -5.06       8.55
C       8.84       3.65      10.46
C       7.98      -3.68       8.55
C       8.07       2.84       9.61
C       8.68      -2.90       9.49
