16

O      -2.34       3.04       9.54
O       2.94      -2.48      14.22
H      -1.56       2.35      12.00
S       0.30       0.43      13.94
S       0.40       0.22       9.76
C       1.56      -0.96      12.15
C      -0.88       1.62      11.57
C       1.45      -0.81      13.53
C      -0.75       1.45      10.20
C      -0.03       0.74      12.28
C       0.73      -0.08      11.42
F       2.37      -1.84      11.54
O      -1.26       1.81       7.94
O       1.85      -1.24      15.80
C       2.13      -1.56      14.59
C      -1.50       2.15       9.15
