42

C      11.63      11.50       4.36
O      12.90      11.52      -2.00
C      11.23      10.34       5.05
H      12.05      13.56       7.07
C      11.42      11.52       7.15
H      10.80       9.47       7.00
C      10.55       8.05       4.93
H      10.41       7.31       4.14
C      11.69      11.53       2.88
H       9.60       8.20       5.47
C      11.82      11.80       0.10
H      11.33       7.69       5.63
C      10.56      11.91       2.14
H       9.77      12.40       0.17
C      10.62      12.07       0.76
H      13.87      11.16       0.24
C      12.96      11.37       0.80
H      12.80      15.70       4.26
C      12.89      11.26       2.19
H      13.41      14.85       5.72
C      12.55      14.97       5.03
H      11.68      15.31       5.60
C      15.19      10.67       2.33
H      15.91      10.44       3.13
C       8.27      12.62       2.20
H      15.54      11.55       1.77
C      11.91      12.03      -1.38
H      15.12       9.81       1.65
O      11.73      12.60       9.22
H       7.52      12.79       2.98
O      10.97       9.25       4.27
H       7.90      11.87       1.48
O       9.43      12.14       2.89
H       8.48      13.56       1.68
O      12.28      13.75       4.34
C      11.29      11.56       8.63
O      13.95      10.92       2.98
C      11.92      12.66       5.09
C      11.12      10.35       6.45
O      10.73      10.55       9.20
C      11.83      12.68       6.48
O      10.97      12.74      -1.89
