40

H       9.72       5.73       6.04
H       9.56       1.61       9.81
H      11.33       5.41      11.96
H       4.77      -1.01       3.69
H       4.95      -0.81       5.44
H       4.90       0.62       4.39
H       7.06      -0.10       3.31
H       7.11      -1.52       4.36
H       8.58       4.21       4.50
H      10.68       6.93       7.26
H      11.73       7.80      11.33
H      10.55       3.18      11.39
H       7.60       2.03       4.00
H       8.85       0.34       8.48
C      11.46       8.89       8.88
C       7.91      -0.10       6.63
C      11.23       7.47       9.24
C       7.85       1.66       5.00
C       7.52       0.36       5.33
C       8.57       0.76       7.51
C       8.87       2.09       7.19
C       8.52       2.54       5.88
C       9.51       3.00       8.12
C       9.83       4.32       7.70
C       7.68      -1.49       7.11
C       9.49       4.72       6.37
C       8.85       3.87       5.50
C       9.81       2.61       9.46
C      10.36       3.49      10.36
C      10.67       4.83       9.98
C      10.44       5.25       8.63
C      11.17       5.75      10.93
C      11.40       7.07      10.59
C      10.79       6.57       8.29
C       6.78      -0.48       4.31
C       5.26      -0.41       4.47
O      11.18       9.76       9.77
O       6.74      -2.16       6.57
O      11.92       9.15       7.71
O       8.46      -1.92       8.03
