31

C       4.23      10.33      10.82
H       5.06      10.78      11.35
H       1.11      12.76      13.20
H      -1.13       8.15       8.70
H       3.45      12.18      12.63
C      -1.91       9.96      10.55
C       4.48       9.40       9.80
C      -2.16      10.92      11.53
C       3.43       8.79       9.11
C      -1.12      11.61      12.16
C       2.10       9.06       9.46
C       0.22      11.33      11.82
H      -2.74       9.43      10.09
C       1.83      10.03      10.47
C       0.49      10.34      10.82
C       2.91      10.69      11.14
C      -0.59       9.66      10.17
C       1.00       8.39       8.83
C       1.32      12.00      12.45
H      -4.74      12.10      13.16
H       3.65       8.08       8.31
H      -1.34      12.36      12.92
H       1.22       7.64       8.07
O      -4.50      10.66      11.23
O       6.69       8.99      10.46
O       6.22       9.01       8.23
O      -3.75      11.95      12.95
C      -0.29       8.67       9.18
C      -3.57      11.16      11.90
C       5.90       9.11       9.48
C       2.61      11.69      12.13
