28

H       3.62       4.89       4.94
H       3.27       5.10       2.49
H       7.56       5.15       1.94
H       2.72       5.59      -1.90
H       6.68       5.43      -4.88
H       7.00       5.23      -2.42
C       4.45       5.75      -6.27
C       5.87       4.77       6.32
C       5.75       4.91       4.84
C       4.47       4.95       4.26
C       4.28       5.07       2.90
C       5.39       5.14       2.03
C       6.69       5.10       2.58
C       6.84       4.99       3.95
C       5.21       5.23       0.63
C       5.05       5.30      -0.58
C       4.88       5.39      -1.98
C       3.60       5.54      -2.53
C       3.46       5.65      -3.91
C       4.55       5.61      -4.79
C       5.82       5.46      -4.21
C       6.00       5.34      -2.84
O       3.31       5.67      -6.83
O       4.77       4.54       6.92
O       7.01       4.87       6.86
O       5.57       5.96      -6.87
F       8.12       4.95       4.42
F       2.20       5.83      -4.38
