12

O       2.77       6.73       6.93
O       5.49      13.75      14.52
O       5.05       6.73       6.89
O       3.21      13.74      14.56
C       3.91       7.10       7.34
C       4.35      13.37      14.12
C       3.94       8.05       8.42
C       4.32      12.40      13.05
C       4.01       8.88       9.32
C       4.25      11.56      12.16
C       4.09       9.80      10.29
C       4.17      10.64      11.19
