32

H       0.15       0.67       6.51
H      -2.97       0.63       5.63
H      -3.15       4.64       2.55
H      -0.93       4.91       2.17
H       1.47       4.87       3.40
H       2.41       2.80       5.72
C      -0.89       4.35       6.81
C      -1.78       1.73       4.63
C      -0.55       2.15       5.50
C      -0.90       3.67       5.47
C      -2.18       3.37       4.61
C      -1.30       3.45       3.32
C      -0.05       3.85       4.14
C       0.33       2.30       4.19
C      -0.93       1.94       3.34
C      -0.93       1.14       2.08
S      -3.33       4.69       4.69
S       1.82       1.39       4.16
O       0.26       4.64       7.26
O      -2.02       4.46       7.39
O      -2.08       0.86       1.61
O       0.21       0.89       1.58
O      -0.23       1.56       6.69
O      -2.44       0.57       4.81
O      -4.47       4.39       5.54
O      -2.59       5.91       4.88
O      -3.93       4.72       3.19
O      -1.61       4.19       2.18
O       0.52       4.99       3.66
O       1.51      -0.01       4.27
O       2.67       1.90       3.11
O       2.37       1.79       5.62
