16

O       3.91       4.04      10.29
O       3.91      10.98      10.50
H       7.19       8.77      10.44
H       7.19       6.25      10.37
H       2.90       6.25      10.37
H       2.90       8.77      10.43
C       6.26       8.20      10.42
C       6.26       6.81      10.38
C       3.83       6.81      10.38
C       3.83       8.20      10.42
C       5.05       8.90      10.44
C       5.05       6.11      10.36
C       5.04      10.40      10.48
C       5.05       4.62      10.31
O       6.18      10.98      10.50
O       6.18       4.04      10.29
