36

O      -3.76       0.43      10.25
O     -11.73       9.21       8.38
H      -7.38      -1.95       8.75
H      -8.64      10.54      11.53
H      -6.15       3.69      11.80
H     -10.82       4.59      10.35
H      -3.55       1.48       8.45
H      -2.12       0.52       8.92
H      -2.52       2.00       9.84
H     -11.86       7.21       9.01
H     -10.51       7.57       7.88
H     -12.21       7.57       7.28
H      -7.04       6.01      11.86
H      -9.92       2.28      10.27
C      -7.67       5.18      11.52
C      -9.30       3.10      10.62
C      -4.60      -0.47       9.70
C     -10.86       9.79       9.24
C      -8.97       5.47      11.06
C      -7.95       2.83      10.98
C      -9.79       4.39      10.66
C      -7.17       3.89      11.48
C      -9.40       6.81      10.90
C      -6.01      -0.46       9.77
C      -7.37       1.57      10.73
C      -6.79       0.56      10.33
C      -9.69       7.96      10.59
C      -9.97       9.28      10.22
C      -6.38      -1.58       8.99
C      -9.38      10.46      10.74
C      -2.94       1.14       9.30
C     -11.56       7.80       8.14
N      -5.28      -2.17       8.49
N      -9.88      11.54      10.14
N      -4.18      -1.51       8.95
N     -10.80      11.13       9.20
