12

O       9.45       0.27       6.39
O       9.44      -1.96       6.03
O       5.73      -1.47       8.50
O       7.07       0.27       8.01
H       7.52      -1.20       4.38
H       6.62      -2.38       6.29
H       5.46      -1.13       5.83
C       8.92      -0.81       5.96
C       7.53      -0.64       5.33
C       6.47      -1.29       6.25
N       7.27       0.79       5.14
C       6.42      -0.79       7.69
