30

H       1.12       5.16      14.82
H       3.88       4.38      19.56
H       1.01       5.14      17.30
H      -0.28       3.30      21.17
H       3.36       5.00      24.08
H      -0.48       3.12      23.64
H       0.84       4.05      19.22
H       3.59       5.15      21.61
H       5.12       3.59      14.99
C       2.92       4.34      19.04
C       1.78       4.22      19.75
C       1.44       4.04      24.01
C       2.99       4.34      17.59
C       1.33       3.92      25.49
C       3.20       4.42      13.26
C       3.12       4.37      14.75
C       1.96       4.80      15.41
C       1.90       4.78      16.80
C       4.15       3.93      16.89
C       4.22       3.92      15.50
C       2.70       4.69      22.05
C       2.58       4.62      23.43
C       0.41       3.57      23.19
C       0.52       3.66      21.80
C       1.68       4.20      21.21
Br       5.68       3.31      17.84
O       2.24       4.50      26.18
O       4.21       3.88      12.70
O       0.35       3.25      25.96
O       2.23       5.01      12.67
