12

C       5.57       3.06       4.57
C       5.58       3.04       5.91
C       5.23       2.92       1.95
C       5.57       3.02       8.49
C       5.55       3.01       7.15
C       5.62       3.05       9.72
O       5.43       4.25      11.69
O       5.61       1.85       1.37
O       4.52       3.84       1.43
C       5.91       3.21      11.12
O       6.67       2.34      11.65
C       5.54       3.05       3.35
