14

H       8.80       5.39       3.53
H      11.33       5.38       3.54
H      11.35       4.89       8.70
H      11.32       6.67       8.55
C       9.36       5.61       6.71
C       9.37       5.45       4.46
C      10.76       5.45       4.46
C      10.76       5.62       6.71
C      10.86       5.74       8.21
C       9.27       5.71       8.22
H       8.83       4.84       8.71
H       8.78       6.62       8.59
N       8.63       5.52       5.60
N      11.49       5.53       5.61
