16

O      -1.30      27.32      11.09
O      -2.62      28.29      12.62
C      -0.80      26.95      13.41
C       0.80      25.78      15.53
Br      -2.58      28.25      15.33
C      -1.11      27.18      14.78
C      -0.33      26.61      15.82
C       0.33      26.12      13.13
C       1.11      25.55      14.16
Br       0.88      25.72      11.35
Br      -0.88      27.01      17.60
O       2.62      24.44      16.33
O       1.30      25.41      17.85
Br       2.58      24.48      13.62
C      -1.64      27.56      12.29
C       1.64      25.17      16.65
