20

H      18.50      14.49      19.69
S      20.14      12.25      21.05
H      24.79      12.75      21.34
H      24.23      11.27      22.10
S      23.18      14.76      19.62
H      19.07      15.81      18.69
N      19.25      14.93      19.16
N      24.08      12.04      21.44
C      21.65      16.63      18.29
C      21.67      10.40      22.41
O      20.49      17.06      17.90
O      22.78      17.18      18.04
O      20.53       9.87      22.68
O      22.82       9.96      22.80
C      20.54      14.66      19.49
C      22.78      12.35      21.19
C      21.66      15.42      19.08
C      21.66      11.60      21.60
C      22.35      13.48      20.42
C      20.96      13.55      20.27
