48

H       2.29      16.04       2.24
H       2.44      18.18       5.96
H       2.14      13.89       5.96
H       1.31      14.36       1.48
H       3.15      12.35       4.84
H       3.27      17.71       1.48
H       1.44      19.72       4.84
H       1.26      17.93       7.81
H       3.32      14.15       7.81
C       2.41      22.28       1.02
C       2.29      16.04      11.98
C       2.17       9.79       1.02
C       2.33      17.26       4.01
C       2.29      16.04       3.33
C       2.26      14.81       4.01
C       2.24      14.83       5.41
C       2.29      16.04       6.13
C       2.35      17.24       5.41
C       1.74      12.28       1.24
C       1.73      13.48       1.95
C       2.23      13.54       3.26
C       2.71      12.35       3.84
C       2.67      11.15       3.13
C       2.20      11.08       1.81
C       2.85      18.59       1.95
C       2.84      19.79       1.24
C       2.38      20.99       1.81
C       1.91      20.92       3.13
C       1.87      19.72       3.84
C       2.35      18.54       3.26
C       1.73      17.10       8.33
C       1.72      17.09       9.72
C       2.29      16.04      10.48
C       2.86      14.99       9.72
C       2.85      14.98       8.33
C       2.29      16.04       7.60
Br       3.29       9.59       4.00
Br       1.09      12.30      -0.54
Br       3.49      19.77      -0.54
Br       1.29      22.49       4.00
Br       0.93      18.65      10.48
Br       3.66      13.43      10.48
O       3.12       9.59       0.21
O       3.38      23.07       1.24
O       3.25      15.45      12.58
O       1.20       9.00       1.24
O       1.34      16.63      12.58
O       1.46      22.48       0.21
