30

H       6.94       4.76       8.26
H      10.16      -4.23       9.09
H       5.87      -4.26       8.90
H      11.14       4.55       9.09
H       6.98       0.21       8.04
H      10.06       0.16       7.98
H      11.15       2.14       8.47
H       5.88      -1.86       8.21
H      10.19      -1.85       8.43
H       6.93       2.36       7.60
C       9.00       6.20       9.26
C       8.03      -5.83       9.46
C       9.03       4.78       8.77
C       8.01      -4.39       9.04
C       7.85       4.16       8.31
C       9.23      -3.70       8.88
C       7.85       2.82       7.95
C       9.24      -2.37       8.51
C       9.03       2.05       8.06
C       8.03      -1.67       8.28
C      10.22       2.71       8.42
C       6.82      -2.38       8.40
C      10.22       4.05       8.78
C       6.81      -3.72       8.78
C       9.06       0.60       7.97
C       7.99      -0.23       8.04
O      10.12       6.76       9.49
O       6.91      -6.41       9.69
O       7.85       6.74       9.40
O       9.18      -6.38       9.55
