16

C      15.20       3.24       9.03
O      19.25       0.89      10.03
O      18.11       1.55      11.90
S      15.34       3.16       6.44
C      16.02       2.77       7.98
H      13.27       4.35       9.22
S      15.88       2.84      10.57
C      17.18       2.10       8.42
H      17.94       1.65       7.79
O      11.97       5.11       6.98
C      14.04       3.91       8.59
C      17.23       2.06       9.80
C      18.28       1.46      10.64
O      13.11       4.45       5.11
C      12.94       4.54       6.37
C      13.99       3.94       7.21
