15

C      16.23       1.65       3.51
C      16.03       2.24       4.87
C      15.26       1.55       5.82
C      15.25       3.35       7.23
N      14.92       2.07       7.01
C      16.47       3.53       5.16
C      16.01       4.12       6.35
C      16.21       5.58       6.60
H      14.92       0.54       5.61
H      14.89       3.79       8.17
H      17.08       4.10       4.46
O      17.38       1.72       2.97
O      15.17       1.14       3.01
O      15.16       6.19       6.99
O      17.36       6.08       6.40
