20

S      26.76      17.04      14.27
S      27.50      16.88      10.15
H      24.64      18.07      10.23
H      23.76      18.67      11.61
H      29.38      15.39      14.18
H      30.42      15.09      12.81
N      24.64      18.38      11.20
N      29.65      15.61      13.23
C      24.31      18.32      14.24
O      24.39      18.19      15.52
O      23.34      18.88      13.60
C      29.94      15.59      10.18
O      29.85      15.70       8.90
O      30.92      15.03      10.82
C      25.53      17.80      12.06
C      28.72      16.10      12.36
C      25.41      17.79      13.46
C      28.85      16.12      10.96
C      27.50      16.71      12.75
C      26.74      17.17      11.67
