16

H      11.53       3.63      29.29
H      12.05      -1.03      27.69
O      13.52       3.68      30.66
O      14.72       1.74      30.65
C       9.88       0.06      26.67
C      10.84       0.74      27.60
C      12.74       1.85      29.36
O      10.16      -1.14      26.33
C      10.70       2.07      28.07
C      12.89       0.53      28.91
C      13.74       2.47      30.30
Cl       9.40       3.13      27.64
C      11.65       2.61      28.94
C      11.95      -0.00      28.05
O       8.87       0.72      26.28
H      13.75      -0.05      29.25
