12

O       6.54      15.60       1.01
C       7.80       8.14       7.37
C       7.68      15.17       1.38
C       7.67      14.07       2.30
C       7.68      13.15       3.12
C       7.70      12.16       4.02
C       7.72      11.24       4.85
C       7.75      10.23       5.73
C       7.77       9.30       6.52
O       6.67       7.73       7.79
O       8.96       7.65       7.60
O       8.84      15.60       1.05
