31

H       6.18      10.81      10.33
H      12.44      16.54       6.95
H      11.18      12.50       7.61
H      12.65      14.09       6.49
H       9.29      16.84      10.53
N       7.14      15.86      12.88
N       4.85      13.65      11.56
C      10.64      17.76       8.46
N      11.68      10.55       9.22
C       7.08      12.76      10.60
C       8.20      10.85       9.60
C      11.84      15.82       7.50
C      11.95      14.45       7.24
C      11.13      13.54       7.90
C      10.22      13.97       8.89
C      10.10      15.37       9.15
C       9.28      13.06       9.54
O      11.66      18.52       8.38
C       8.20      13.59      10.31
C       8.31      14.96      10.76
C       9.23      15.81      10.18
C       8.15       9.43       9.13
C       9.34      11.64       9.38
C       7.07      11.43      10.19
C      10.89      16.29       8.40
O       9.42      18.14       8.53
O       9.06       9.08       8.32
O       7.20       8.70       9.55
C       7.60      15.44      11.90
C       5.88      13.28      11.18
C      10.60      11.01       9.19
