36

H       1.56      13.97      11.49
H       2.60      13.31      10.19
O       1.20       6.57      16.48
O      -1.02      14.23       7.16
H       3.33      13.82      11.75
H      -2.45       7.56      13.50
H      -1.39       6.91      12.19
H      -3.16       7.05      11.94
O       2.35      12.06      11.87
O      -2.19       8.82      11.83
O       2.21       9.93      13.54
O      -2.05      10.95      10.15
H       1.85      11.23      15.14
H       3.14      11.76      14.01
H       3.42      10.36      15.10
H      -3.02       9.13       9.72
H      -1.70       9.60       8.59
H      -3.25      10.51       8.58
C       0.09       6.78      15.89
C       0.09      14.06       7.78
C       1.16      10.25      12.73
C      -1.01      10.63      10.98
C       0.04       9.38      12.78
C       0.12      11.50      10.93
C      -1.05       9.55      11.88
C       1.21      11.33      11.82
C       0.04       8.44      13.83
C       0.12      12.44       9.87
C       0.07      13.18       8.91
C       0.10       7.68      14.78
C       2.45      13.37      11.27
C      -2.29       7.50      12.41
C       2.68      10.89      14.50
C      -2.53       9.97       9.21
O       1.21      14.58       7.47
O      -1.03       6.27      16.21
