15

N      13.85      10.14       1.29
C      11.11      12.57       2.12
C      12.33      11.72       2.31
H      12.42      11.18       0.21
C      12.84      11.02       1.20
H      12.57      12.05       4.44
C      12.92      11.51       3.56
C      13.93      10.56       3.66
C      14.35       9.89       2.50
O      11.26      13.82       2.03
O      10.03      11.90       2.03
O      14.45       8.91       5.23
O      15.01      11.06       5.72
H      15.13       9.13       2.56
C      14.51      10.16       4.98
