16

H       8.64       2.56       8.05
C       9.08      -0.16      10.80
C       8.76      -0.53       9.50
H       9.14       3.22      10.44
H       9.22      -0.92      11.57
H       8.67      -1.58       9.23
C       9.05       2.17      10.15
C       8.42       0.03       7.08
O       8.43       0.92       6.18
C       8.63       0.45       8.50
O       8.27      -1.23       6.87
C       8.76       1.81       8.84
O      10.00       0.63      13.32
C       9.25       1.19      11.13
C       9.70       1.57      12.51
O       9.78       2.80      12.78
