16

C       3.86       2.95       5.80
C       1.62       4.12       6.18
C       2.71       3.58       5.35
S       2.61       3.70       3.62
C       4.13       2.90       3.46
C       4.68       2.56       4.72
S       6.19       1.77       4.56
C       4.95       2.51       2.38
C       6.10       1.89       2.82
O       7.08       1.49       0.74
O       8.15       0.78       2.63
O       0.66       4.68       5.54
O       1.73       3.98       7.44
C       7.19       1.35       2.00
H       4.07       2.80       6.86
H       4.74       2.67       1.32
