29

H       2.64      15.53       4.02
H       1.75      14.76       6.58
H       2.90      13.83       5.62
H       2.57      13.25       2.95
H      -1.15      13.65       3.17
H      -1.13      15.26       3.89
H      -0.76      14.40       6.05
H      -1.29      12.87       5.35
H       1.08      12.68       2.16
H       0.32      11.57       4.08
H       1.14      16.12       4.76
H       2.69       9.45       5.06
C       0.90      12.26       6.81
C       1.67      15.21       4.44
C       1.88      14.24       5.62
C       1.49      13.13       3.08
C      -0.59      14.30       3.86
C       0.84      14.51       3.34
C       0.87      13.08       5.53
C       1.21      12.19       4.28
C      -0.54      13.66       5.27
C       0.87      15.30       2.04
C       2.37      11.24       4.51
O      -0.22      11.91       7.32
O       2.04      12.00       7.32
O       2.01      15.59       1.56
O      -0.25      15.58       1.50
O       3.56      11.53       4.43
O       1.92      10.00       4.82
