61

C       6.63       6.76       7.76
C       5.58      10.40       9.69
C       6.55      11.27      10.11
C       7.93      10.90      10.09
H       6.91       5.88       7.18
H       6.30      12.26      10.47
H       4.54       5.33       6.82
H       2.12       5.86       7.16
H       3.16       9.36       9.38
H       8.64       7.30       8.19
H       4.54      10.72       9.74
C       8.29       9.59       9.63
C       8.91      11.81      10.57
C       9.66       9.22       9.77
C      10.25      11.45      10.59
H      15.11      12.42      13.46
C       9.89       7.03      10.57
C      10.40       5.66      10.20
C      10.20       4.67      11.34
C      11.88      12.02      12.25
C      13.34      12.42      12.18
C      14.05      12.15      13.51
C       8.88      14.16      10.19
C       8.50      15.44      10.90
H       8.81       7.01      10.79
H      10.43       7.42      11.46
H       9.87       5.31       9.29
H      11.47       5.74       9.95
H      10.76       4.98      12.23
H      10.55       3.66      11.06
H       9.14       4.59      11.62
H      11.79      10.94      12.45
H      11.36      12.56      13.06
H      13.83      11.86      11.37
H      13.42      13.48      11.91
H      13.60      12.74      14.33
O      10.13       7.95       9.47
O      11.21      12.34      11.00
H       8.33      14.06       9.23
H       9.96      14.11       9.99
O       8.50      13.04      11.04
H       9.06      15.53      11.84
H       8.75      16.30      10.26
H       7.43      15.48      11.12
O       0.23       7.14       8.10
O      12.65      10.31       9.08
H      13.99      11.09      13.79
O      12.55       8.94      10.90
O       0.85       9.01       9.24
C      12.06       9.76      10.06
C       2.53       7.65       8.30
C       1.10       7.95       8.57
C      10.61      10.14      10.19
C       4.24       6.22       7.38
C       2.90       6.50       7.56
C       3.50       8.50       8.81
C       4.88       8.24       8.62
C       5.25       7.06       7.91
C       5.91       9.12       9.14
C       7.27       8.74       9.05
C       7.59       7.55       8.32
