14

O       6.33       8.00       9.77
H       1.72       9.34       9.60
O      -0.46       8.72       9.74
O       6.71      10.24       9.80
O      -0.85       6.48       9.69
H       4.14       7.37       9.61
C       5.96       9.22       9.75
C      -0.10       7.50       9.68
Br       2.03       5.52       9.55
Br       3.82      11.20       9.65
C       4.48       9.41       9.65
C       1.39       7.30       9.60
C       3.64       8.34       9.60
C       2.22       8.37       9.58
