40

H       2.98       0.85       6.77
C       3.55       1.67       3.90
C       3.63       2.36       2.67
C       3.57       1.70       1.46
C       3.45       0.29       1.44
C       3.49      -0.42       2.65
C       3.54       0.26       3.86
C       2.75      -1.88      -2.17
C       2.12      -2.49      -3.25
C       2.46      -0.52      -1.86
H       0.36      -4.66      -4.51
C       1.20      -1.80      -4.07
C       0.99      -0.43      -3.81
C       1.63       0.19      -2.75
C       3.20       3.78       5.32
C       3.34       2.39       5.15
C       3.23      -3.51      -0.51
N       2.67       2.88       7.25
N      -0.54      -4.11      -6.34
N      -0.67      -2.93      -7.02
H       2.38      -3.53      -3.47
H       3.51      -0.31       4.79
H       0.29       0.13      -4.43
H       3.57       2.24       0.52
N       3.16      -0.47       0.29
H       3.68       3.45       2.68
N       2.88       0.21      -0.75
H       1.45       1.24      -2.52
H       3.35       4.59       4.61
H      -0.04      -0.94      -6.68
N       2.79       4.05       6.57
O       3.72      -2.58      -1.49
H       2.74      -2.97       0.31
H       4.11      -4.05      -0.14
H       2.53      -4.23      -0.97
H       3.42      -1.50       2.61
C       3.01       1.87       6.42
C       0.16      -3.86      -5.21
C      -0.07      -1.96      -6.31
C       0.49      -2.49      -5.13
