24

O       5.67       8.15       4.85
O       7.75      15.28      -4.84
H       7.64      12.94       1.91
H       5.81      10.48      -1.91
H       4.45      10.95       0.55
H       8.99      12.47      -0.54
H       5.31      13.67       0.46
H       8.13       9.75      -0.45
C       6.80       8.55       4.44
C       6.61      14.87      -4.43
C       7.23      12.40       1.05
C       6.21      11.01      -1.05
C       5.94      12.79       0.27
C       7.51      10.63      -0.26
C       6.62      14.05      -3.24
C       6.81       9.37       3.25
C       7.99      12.12      -0.29
C       5.46      11.30       0.29
C       6.69      12.52      -1.10
C       6.75      10.89       1.11
C       6.64      13.35      -2.25
C       6.79      10.07       2.26
O       7.93       8.31       4.97
O       5.48      15.11      -4.97
