16

O      17.92       9.52       7.78
N      20.72      12.26       5.72
N      19.60      12.36       6.46
C      21.80      13.78       4.02
C      21.47      13.48       5.48
H      20.87      14.30       5.89
H      22.43      13.44       6.02
C      21.05      10.97       5.42
H      21.92      10.74       4.82
C      20.08      10.18       6.00
C      19.20      11.09       6.64
C      18.02      10.76       7.47
H      20.00       9.10       5.98
O      22.37      12.86       3.35
O      21.52      14.95       3.63
O      17.24      11.71       7.80
