16

S      11.15       7.41      12.92
S      14.75       8.95      11.45
C      10.15       9.59      14.25
O      10.23      10.80      14.63
C      12.43       9.69      13.01
O       9.20       8.77      14.49
C      11.26       9.07      13.44
C      13.48       6.66      11.35
C      12.67       7.54      12.11
C      13.24       8.82      12.25
C      14.64       7.29      10.92
C      15.75       6.76      10.11
O      16.70       7.59       9.86
Br      12.97      11.46      13.35
Br      12.95       4.89      11.03
O      15.67       5.55       9.73
