41

C       0.22       5.20       6.79
C       1.41       4.45       6.74
H      -2.88       6.54       3.86
C       2.04       4.11       7.94
H      -2.18       7.49      12.10
C       1.46       4.52       9.14
C       0.28       5.27       9.09
C      -0.48       5.52       5.54
C      -0.90       5.71       3.47
C       0.34       5.28      -0.04
C       0.31       5.26       1.35
H       1.81       4.15       5.78
C      -0.84       5.71       2.01
H       2.96       3.53       7.93
C      -1.92       6.15       1.23
C      -1.81       6.12      -0.15
H       1.91       4.27      10.10
H       1.22       4.94      -0.59
C      -0.32       5.74      10.35
H       1.17       4.91       1.91
C      -0.68       5.94      12.44
H      -2.84       6.52       1.69
C       0.23       4.95      15.94
C       0.25       5.01      14.55
H      -2.62       6.46      -0.79
C      -0.67       5.84      13.89
H       0.93       4.32      16.49
C      -1.58       6.58      14.67
H       0.96       4.42      13.97
H      -2.30       7.27      14.24
C      -1.53       6.45      16.05
N      -0.33       5.62       7.95
H      -2.23       7.00      16.69
N      -1.72       6.04       5.51
N      -1.97       6.13       4.19
N       0.06       5.30       4.31
N      -0.70       5.70      -0.78
N      -1.28       6.67      10.43
N      -1.50       6.78      11.76
N       0.08       5.27      11.57
N      -0.65       5.65      16.68
