15

O      11.28       3.16      20.70
C       8.24       0.04      20.53
H      10.62       0.29      19.20
C       8.33      -1.16      19.91
H       7.33       0.23      21.08
O       6.16      -1.90      20.61
O      12.32       2.08      18.97
H       9.15      -2.47      18.86
O       9.40      -1.57      19.19
O       7.44      -3.20      19.23
C      11.39       2.20      19.86
C       9.23       1.08      20.54
C      10.40       1.13      19.85
C       7.20      -2.15      19.94
F       8.86       2.11      21.35
