20

O      -1.25      27.08      11.01
O      -2.59      28.06      12.55
O       2.59      24.26      16.14
O       1.25      25.24      17.68
H      -2.59      28.06      14.22
H       2.59      24.26      14.47
H      -0.09      26.23      17.56
O       2.16      24.57      13.63
O      -0.73      26.70      16.97
O       0.73      25.62      11.72
O      -2.16      27.74      15.06
H       0.09      26.09      11.13
C      -1.58      27.32      12.23
C       1.58      25.00      16.46
C      -0.78      26.73      13.31
C       0.78      25.59      15.38
C      -1.11      26.98      14.67
C       1.12      25.34      14.02
C      -0.34      26.41      15.70
C       0.35      25.91      12.99
