33

C       1.54      14.26      21.39
C       1.83      13.89      22.77
C       1.41      14.94      23.62
C       0.83      16.10      22.80
C       1.70      17.36      22.95
C      -0.62      16.41      23.19
C       2.12      13.46      27.02
C       0.31      16.06      17.69
H       1.23      15.62      25.67
H       2.84      11.67      25.12
H       2.71      11.91      22.65
H       2.26      12.60      20.18
H       1.48      13.66      18.03
H       0.07      17.11      20.15
H       2.74      17.14      22.68
H       1.33      18.16      22.29
H       1.69      17.72      23.98
H      -1.26      15.53      23.07
H      -0.68      16.74      24.24
H      -1.03      17.22      22.56
O       1.92      14.47      27.77
O       2.35      12.30      27.51
O       0.26      15.36      16.63
O       0.03      17.31      17.72
C       1.53      14.83      24.99
C       2.05      13.64      25.53
C       2.47      12.60      24.68
C       2.37      12.72      23.30
C       1.76      13.58      20.19
C       1.34      14.16      18.99
C       0.73      15.43      18.99
C       0.54      16.12      20.19
C       0.93      15.54      21.38
