44

C       2.97      13.39       1.06
C      -2.35       8.82      -0.48
H      -2.09       7.93       4.31
H       1.95      15.42      -4.19
H      -2.18       9.77       2.62
H       2.01      13.58      -2.51
H       1.92       8.96       1.56
H      -2.13      14.32      -1.56
O       0.98      17.40      -5.25
O      -1.12       5.96       5.38
H       2.01       7.16       3.29
H      -2.19      16.11      -3.30
H       1.79      11.27       1.57
H      -2.00      12.00      -1.50
O      -1.29      17.32      -5.30
O       1.15       5.94       5.29
H       3.55      12.46       1.13
H       2.41      13.55       2.00
H       3.65      14.22       0.88
H      -1.60       8.17      -0.00
H      -2.11       8.94      -1.55
H      -3.34       8.37      -0.37
O       2.07      13.37      -0.06
O      -2.41      10.10       0.17
C      -0.15      16.95      -4.87
C       0.01       6.36       4.93
C      -1.22       8.17       3.70
C       1.06      15.16      -3.61
C      -1.27       9.19       2.75
C       1.10      14.14      -2.66
C      -0.14       9.49       1.97
C      -0.05      13.82      -1.91
C       1.04       8.75       2.17
C      -1.24      14.54      -2.15
C       1.10       7.74       3.13
C      -1.28      15.55      -3.11
C      -0.04       7.44       3.90
C      -0.12      15.87      -3.84
C       0.96      11.44       0.89
C      -1.15      11.86      -0.83
C       1.02      12.49      -0.02
C      -1.23      10.83       0.11
C      -0.05      12.72      -0.92
C      -0.15      10.59       0.98
