19

O       2.60      10.43       1.98
O       4.67       9.79       1.29
O       5.41      10.51       8.63
O       2.24      10.70       4.79
O       7.34       9.97       7.70
O       3.18      10.81       6.90
H       1.34      11.66       6.40
H       1.36       9.85       6.49
H       7.39      10.09       5.19
H       6.40       9.97       2.92
C       3.83      10.16       2.17
C       4.37      10.27       3.56
C       4.16      10.55       5.97
C       1.91      10.75       6.19
C       5.52      10.38       6.21
C       6.14      10.28       7.55
C       3.59      10.50       4.70
C       6.32      10.20       5.05
C       5.77      10.15       3.78
