32

H       6.25       9.69       4.66
H       6.28       9.81       2.21
H       6.36       5.46       2.10
H       6.35       5.41       4.51
H       6.29      10.92      -2.10
H       6.37       6.58      -2.21
H       6.40       6.69      -4.66
H       6.30      10.97      -4.51
H       6.32       5.73       0.53
H       6.33      10.65      -0.53
C       6.28       7.49       6.25
C       6.37       8.89      -6.25
C       6.29       7.55       4.75
C       6.27       8.77       4.08
C       6.29       8.84       2.69
C       6.31       7.66       1.90
C       6.33       6.43       2.60
C       6.32       6.37       3.99
C       6.32       7.65       0.43
C       6.33       8.73      -0.43
C       6.32       9.95      -2.61
C       6.34       8.72      -1.90
C       6.37       7.55      -2.69
C       6.38       7.61      -4.08
C       6.36       8.83      -4.75
C       6.33      10.01      -3.99
O       6.38       6.34       6.79
O       6.18       8.60       6.87
O       6.27      10.04      -6.79
O       6.47       7.78      -6.87
O       6.34       6.40      -0.17
O       6.31       9.98       0.17
