26

H       4.91      14.87       8.75
H       1.83      17.72      10.39
H       0.20      13.54       9.52
H       6.53      17.71      11.93
H       1.12      15.54      10.67
H       5.62      15.72      10.78
C       2.03      13.04       8.51
C       4.70      18.84      11.86
C       4.34      12.69       7.48
C       2.39      19.91      11.64
C       3.39      13.43       8.32
C       3.34      18.81      11.42
C       3.88      14.59       8.96
C       2.86      17.68      10.74
C       3.09      15.37       9.80
C       3.64      16.56      10.48
C       1.24      13.85       9.36
C       5.50      17.70      11.58
C       1.75      14.97       9.99
C       4.98      16.59      10.93
O       1.45      11.96       7.95
O       5.29      19.86      12.51
O       5.48      13.21       7.20
O       1.25      19.89      11.05
O       4.05      11.50       7.06
O       2.69      20.86      12.46
