28

C       5.81       4.85       6.02
C       5.02       2.77       6.24
C       4.72       4.15       6.92
H       4.29       2.05       5.88
C       6.58       3.21       2.76
C       6.35       3.29       3.96
C       7.08       3.01       1.44
H       6.26       0.45       7.55
H       6.68       1.31       8.92
N       5.60       5.96       5.20
H       3.72       4.54       7.15
N       6.07       1.28       8.10
O       7.89       3.89       0.98
H       5.71       6.89       5.63
H       6.16       5.92       4.34
H       7.65       5.25       7.52
H       8.21       2.78       6.23
O       4.18       3.38      12.47
O       5.22       5.40      12.54
C       5.59       4.03       9.43
C       4.92       4.29      11.97
O       6.74       1.94       0.82
C       5.39       4.10      10.63
C       7.22       3.17       6.46
C       6.12       3.45       5.34
C       6.91       4.54       7.14
C       5.81       3.87       8.04
C       6.09       2.47       7.34
