60

C      11.42       5.29      12.14
C      11.97       3.88      11.96
C      12.30       3.25      13.31
H      13.69       9.45       8.37
C      13.18       8.68       8.93
H      13.64       5.95      10.91
C      16.08       8.72       8.99
C      16.10       6.65      10.20
H      15.58       9.52       8.46
N      18.18       7.74       9.62
N      11.08       7.70       9.56
O      18.29       5.76      10.69
O      11.03       9.56       8.29
O      18.19       9.68       8.41
O      10.96       5.90      10.92
H      18.60       3.78      10.86
H      16.97       4.20      10.28
H      18.04       4.60      13.13
H      16.43       5.09      12.61
H      17.51       2.19      12.56
H      16.36       2.84      13.75
H      15.88       2.67      12.05
H      10.81      11.37       7.45
H      12.49      10.83       7.47
H      10.83      11.62       9.93
H      12.53      11.15       9.99
H      13.13      13.15       8.52
H      12.37      13.64      10.04
H      11.42      13.65       8.55
H      19.08      11.48       8.51
H      18.42      10.93      10.05
H      16.74      11.87       7.64
H      16.09      11.40       9.22
H      18.01      13.77       8.78
H      16.26      13.88       9.12
H      17.37      13.24      10.34
H      10.52       5.27      12.78
H      12.16       5.95      12.62
H      11.23       3.26      11.43
H      12.87       3.90      11.32
H      13.07       3.83      13.86
H      12.69       2.23      13.20
H      11.41       3.20      13.96
H      15.61       5.81      10.68
C      13.15       6.73      10.33
C      17.50       6.70      10.17
C      11.79       8.65       8.92
C      17.47       8.72       9.03
C      11.75       6.77      10.27
C      15.37       7.68       9.61
C      13.89       7.69       9.62
C      17.75       4.46      11.01
C      17.23       4.35      12.44
C      16.71       2.94      12.71
C      11.57      10.89       8.07
C      11.77      11.65       9.37
C      12.20      13.10       9.10
C      18.20      11.02       8.98
C      16.96      11.85       8.72
C      17.16      13.27       9.26
