22

O       3.35       5.76       2.03
O       3.35       8.03       2.20
O      -3.60       8.07       1.95
O      -3.63       5.88       2.55
H      -2.71       5.70       0.09
H       2.26       5.70      -0.10
C       2.78       6.90       2.13
C      -3.05       6.98       2.25
C      -1.55       6.93       2.22
C      -0.89       6.32       1.12
C      -0.82       7.47       3.26
C      -1.62       5.72       0.06
C      -0.98       5.13      -1.00
C       1.27       6.89       2.16
C       0.60       7.43       3.24
C       0.54       6.31       1.08
C       1.18       5.71      -0.04
C       0.45       5.13      -1.06
Cl       1.47       8.00       4.61
Cl      -1.64       8.20       4.60
Cl      -1.91       4.39      -2.26
Cl       1.28       4.40      -2.38
