20

C       3.63       1.89       3.05
C       5.70       2.99       4.80
C       3.58       3.19       3.57
C       5.76       1.67       4.29
C       4.57       3.71       4.40
C       4.76       1.15       3.45
C       2.76       4.46       3.59
C       3.88       5.05       4.53
H       2.66       4.95       2.61
H       1.76       4.36       4.04
H       3.55       5.31       5.55
H       4.44       5.90       4.12
C       6.75       3.57       5.68
C       2.56       1.35       2.16
O       6.55       4.79       6.04
O       7.73       2.84       6.00
O       2.67       0.15       1.77
O       1.62       2.17       1.86
F       6.78       0.84       4.57
F       4.96      -0.12       3.03
