16

O      10.22      10.77      14.69
O       9.06       8.81      14.44
O      16.63       7.55       9.87
C      10.07       9.58      14.26
S      11.06       7.38      12.88
C      13.41       6.66      11.33
H      13.17       5.64      11.04
C      14.58       7.29      10.96
C      12.61       7.51      12.12
C      13.20       8.77      12.32
C      12.37       9.61      13.10
S      14.73       8.92      11.55
C      11.18       9.01      13.48
C      15.66       6.75      10.12
O      15.54       5.54       9.72
F      12.73      10.87      13.42
