23

C       5.49       8.50       2.13
C       6.83       8.90       1.97
H       4.14       6.84       2.43
C       7.84       7.92       1.97
H       4.70       9.25       2.15
C       7.52       6.57       2.14
C       7.17      10.33       1.87
H       8.88       8.21       1.81
C       8.36      10.85       2.40
H       8.29       5.80       2.14
H       9.07      10.19       2.91
C       8.62      12.21       2.34
H       9.53      12.64       2.75
C       6.62      12.60       1.24
C       6.29      11.25       1.26
H       5.96      13.34       0.80
H       5.37      10.92       0.78
C       5.84       4.73       2.52
C       5.17       7.15       2.30
N       7.75      13.08       1.78
C       6.18       6.18       2.32
O       6.79       3.90       2.58
O       4.59       4.47       2.60
