14

H       6.45       2.66       6.77
H       7.55       0.47       8.71
H       8.47       2.86       9.10
H       6.19       0.34       5.94
O       6.75       5.03       7.29
O       7.30      -2.10       6.10
O       8.64       5.34       8.53
O       6.19      -2.01       8.09
C       6.60      -0.02       6.89
C       7.09       0.85       7.80
C       7.78       3.17       8.31
C       7.07       2.28       7.59
C       7.72       4.62       8.02
C       6.70      -1.49       7.05
