16

O       4.00       4.25       1.46
H       7.28       2.22       5.73
O       4.00       1.26       7.71
H       7.28       3.28       3.44
H       2.99       3.28       3.44
H       2.99       2.22       5.73
C       6.35       2.46       5.22
C       6.35       3.04       3.96
C       3.92       3.04       3.96
C       3.92       2.46       5.22
C       5.14       2.17       5.86
C       5.14       1.51       7.20
C       5.14       3.33       3.32
C       5.14       3.99       1.98
O       6.27       1.26       7.71
O       6.27       4.25       1.46
