32

H       3.43       3.13       0.15
H       1.98       9.51      -2.16
H       5.16       3.51       0.14
H       4.44       2.66       1.53
H       4.83       5.01       2.16
H       3.14       4.63       2.19
H       1.65      11.02      -0.14
H       3.38      11.39      -0.15
H       2.37      11.86      -1.53
H       3.67       9.89      -2.19
C       3.44       7.38      -5.47
C       3.70       6.01       0.69
C       3.11       8.51      -0.69
C       3.40       7.21       1.39
C       3.41       7.31      -1.39
C       3.12       8.40       0.70
C       3.69       6.12      -0.70
C       3.38       7.22       2.80
C       3.37       7.14       5.47
C       3.43       7.30      -2.80
C       3.44       7.33      -4.02
C       3.37       7.19       4.02
C       3.99       4.77       1.50
C       4.27       3.45       0.78
C       2.82       9.76      -1.50
C       2.54      11.07      -0.78
O       3.49       6.26      -6.07
O       3.32       8.26       6.07
O       3.40       8.54      -5.99
O       3.41       5.98       5.99
F       3.96       5.03      -1.47
F       2.85       9.49       1.47
