18

C      18.06      17.98       6.04
C      15.62      19.88       7.92
C      17.94      16.92       6.94
C      15.69      20.92       6.99
C      16.49      18.81       7.58
C      17.21      19.06       6.41
S      16.83      17.26       8.24
S      16.84      20.60       5.71
O      18.87      17.96       4.95
O      14.80      19.89       9.01
C      18.59      15.60       6.90
C      14.90      22.15       6.92
O      18.30      14.78       7.84
O      15.13      22.94       5.93
O      14.02      22.32       7.83
H      18.76      18.81       4.48
H      14.92      19.06       9.49
O      19.38      15.39       5.92
