16

S      14.70      11.42      27.59
O      17.35      13.91      26.13
O      15.07      13.78      26.07
S      17.63       9.03      29.37
O      17.24       6.69      30.94
C      16.24      13.37      26.41
C      16.08       7.09      30.54
O      14.96       6.53      30.77
C      17.31      11.42      27.76
C      15.01       9.03      29.19
C      16.25      12.14      27.22
C      16.08       8.31      29.73
C      15.46      10.16      28.47
C      16.86      10.29      28.48
Br      19.14      11.83      27.62
Br      13.19       8.63      29.34
