28

C      -1.72       9.09       9.02
C      -2.14       8.06       8.19
H       1.64      10.29       2.64
C      -1.55       7.90       6.93
H       0.19      10.67       4.63
C       2.68       7.93       1.78
H       0.23       6.44       5.44
C      -0.27      11.04       9.51
H       1.61       6.07       3.40
C      -3.26       7.16       8.62
H       0.54      10.59       6.97
O       3.34       8.91       1.34
H      -2.13       9.19      10.02
H      -1.88       7.07       6.30
O       2.79       6.70       1.38
O      -3.48       6.11       7.97
O      -3.94       7.58       9.64
O       0.32      12.10       9.11
C       1.72       8.16       2.90
O      -0.39      10.86      10.78
C       1.31       9.45       3.25
C       0.51       9.66       4.37
C       0.13       8.58       5.19
C       0.50       7.28       4.81
C       1.28       7.07       3.67
C      -0.57       8.80       6.47
C      -0.21       9.87       7.30
C      -0.75       9.99       8.58
