20

H       3.10       0.51       4.69
H       4.78       1.61       6.17
H       4.14       3.22       1.51
H       5.26       6.18       2.06
C       2.43       1.23       2.17
C       3.49       1.82       3.03
C       3.70       1.34       4.33
C       4.65       1.94       5.15
C       5.45       2.99       4.66
C       6.44       3.61       5.62
C       5.29       3.41       3.33
C       4.29       2.86       2.53
S       6.48       4.50       2.57
O       1.72       2.05       1.48
O       2.31      -0.04       2.19
O       7.50       2.93       5.81
O       6.09       4.69       6.16
O       7.04       5.37       3.56
O       7.30       3.70       1.71
O       5.55       5.38       1.58
