16

N      -2.61      10.33       8.62
N      -2.56      11.42       7.86
C      -4.37      10.37       7.24
C      -3.74       9.64       8.28
C      -4.31       8.46       8.78
C      -5.52       8.07       8.21
H      -3.83       7.90       9.58
C      -5.58       9.97       6.67
H      -6.04      10.54       5.87
C      -6.17       8.81       7.17
H      -6.01       7.17       8.58
C      -7.49       8.34       6.63
H      -7.82       7.41       7.12
H      -8.27       9.10       6.76
H      -7.42       8.13       5.55
N      -3.59      11.47       7.02
