20

C       7.12       3.28       0.29
H       8.44      -4.76       1.73
C       7.86      -4.39      -0.41
H       7.55      -5.25      -2.48
N       8.46      -6.41       0.40
H       7.30       5.14      -1.95
N       8.17      -6.56      -0.94
H       7.74       5.40       2.36
C       8.27      -5.13       0.72
C       7.49       5.43      -0.92
N       7.93       6.66      -0.61
C       7.72       5.56       1.28
N       8.07       6.74       0.74
C       7.36       4.66       0.25
C       7.82      -5.36      -1.43
C       7.59      -3.02      -0.43
C       7.40      -1.81      -0.31
C       7.23      -0.49      -0.16
C       7.12       0.73       0.02
C       7.07       2.06       0.18
