28

O       5.97       1.35       1.27
H       5.16       4.68       4.72
O       8.24       1.33       1.21
H       9.46       4.40       4.68
H       9.84       9.21       9.58
H       5.04       2.95       2.91
H       9.32       2.68       2.87
H       5.41       7.78       7.80
H       5.56       9.50       9.61
H       9.72       7.48       7.77
C       7.76      10.45      10.80
C       6.07       4.24       4.31
C       6.00       3.28       3.30
C       7.18       2.73       2.78
C       8.42       3.13       3.28
C       8.50       4.08       4.29
C       7.32       4.66       4.81
C       7.40       5.65       5.81
C       7.48       6.52       6.67
C       6.38       8.09       8.19
C       6.46       9.05       9.20
C       7.70       9.45       9.70
C       8.88       8.89       9.18
C       8.81       7.93       8.18
C       7.56       7.51       7.67
C       7.12       1.73       1.68
O       6.65      10.85      11.27
O       8.92      10.83      11.20
