16

H       5.78       1.21       6.53
H       5.90      -1.29       6.47
H       2.16      -1.40       4.34
H       2.05       1.09       4.40
C       3.83       2.79       5.53
C       4.08      -2.98       5.43
C       5.00       0.63       6.05
C       5.06      -0.76       6.02
C       4.03      -1.49       5.41
C       3.90       1.30       5.48
C       2.95      -0.82       4.83
C       2.88       0.56       4.86
O       2.69       3.33       5.33
O       2.98      -3.60       5.22
O       4.92       3.42       5.77
O       5.20      -3.53       5.66
