28

H       5.75       3.44       2.14
H       2.10       5.78       2.02
C       3.72       2.63       4.27
C       3.11       1.91       5.28
C       1.74       1.60       5.28
C       1.01       2.02       4.16
C       1.60       2.78       3.15
H       2.58      -0.80       6.83
C       2.96       3.13       3.20
N       5.27       5.41       1.54
N       4.12       6.15       1.50
H       4.77       2.90       4.37
H      -0.05       1.76       4.09
H       0.98       3.12       2.31
N      -0.05       0.34       8.29
C       4.97       4.19       2.03
N       0.98      -0.52       8.20
C       3.11       5.38       1.95
N       3.96       1.66       6.46
N      -0.97       2.19       7.15
O       3.59       2.15       7.54
C       3.60       4.12       2.33
O       5.00       1.01       6.29
O      -0.99       2.96       6.18
O      -1.80       2.26       8.11
C       0.02       1.17       7.23
C       1.70      -0.22       7.09
C       1.14       0.87       6.41
