28

O       2.34       3.17       8.41
O       5.08      -3.61       8.12
O       4.55       3.32       8.91
O       2.87      -3.73       8.62
H       7.40      -0.34       7.33
H       7.14      -2.04       7.81
H       7.71      -1.66       6.17
H       5.29      -2.26       6.14
H       5.53      -0.58       5.63
H       3.19       0.45      12.23
H       3.42       2.08      11.56
H       1.99       1.73      12.56
H       1.34       1.77      10.14
H       1.15       0.13      10.79
H       5.05       1.29       7.07
H       2.38      -1.70       9.94
C       3.49       2.67       8.66
C       3.94      -3.08       8.37
C       4.48       0.62       7.71
C       2.96      -1.02       9.31
C       4.63      -0.76       7.55
C       5.59      -1.26       6.49
C       7.05      -1.33       6.98
C       1.89       0.90      10.53
C       2.67       1.31      11.79
C       2.81       0.35       9.46
C       3.86      -1.59       8.39
C       3.59       1.18       8.63
