58

C      16.71      14.02      14.23
C      16.87       8.71      16.27
H      13.53      14.01      12.94
C      14.43      13.66      13.45
C      19.24       8.98      16.82
C      15.51      14.48      13.59
H      17.77      15.88      14.10
C      18.10       8.24      16.86
H      15.76       6.96      16.71
C      14.53       8.36      15.59
H      21.35      10.62      16.45
H      12.42      11.88      13.43
C      16.76      12.66      14.70
C      16.86      10.02      15.68
C      15.62      11.84      14.62
O       9.67       9.49      14.34
O      23.95      13.12      15.44
H      22.36      16.23      14.12
H      23.33      15.62      15.47
H      10.03       8.02      15.77
O      21.16      17.19      15.91
O      12.50       5.27      15.53
H      18.09       7.25      17.33
H      15.49      15.50      13.19
O      18.96      17.15      15.46
O      14.72       5.59      15.56
H      20.17       8.60      17.25
H      10.51       6.77      14.63
C      19.05      14.35      14.93
C      18.02      10.81      15.69
O      22.94      11.17      14.92
O      10.73      11.45      14.62
C      22.69      15.33      14.63
C      10.84       7.35      15.50
H      23.31      14.75      13.94
C      17.98      12.15      15.21
C      15.65      10.51      15.13
C      20.13      16.57      15.48
C      13.54       6.05      15.53
C      10.75      10.18      14.53
C      22.91      12.44      15.22
H      11.02       6.65      16.32
C      19.15      12.95      15.23
C      14.48       9.70      15.09
C      21.59      13.12      15.29
C      12.05       9.47      14.73
C      13.37       7.53      15.46
C      20.23      15.14      15.11
C      20.40      12.36      15.56
C      15.73       7.93      16.23
C      17.82      14.84      14.41
C      20.41      11.05      16.11
C      13.31      11.50      13.93
C      13.26      10.23      14.55
C      21.50      14.51      15.06
C      12.10       8.13      15.19
C      14.43      12.32      13.98
C      19.25      10.29      16.22
