34

H       0.66      18.91       7.27
H       0.50      16.72       8.44
H       2.74      14.90       5.23
H       2.74      13.59      11.22
H       0.50      11.78       8.01
H       0.66       9.59       9.18
H       1.66      13.48       6.89
H       1.66      15.01       9.56
H       3.44      18.03       3.59
H       3.81      16.35       3.69
H       3.44      10.46      12.86
H       3.81      12.14      12.76
C       1.92       8.98      11.41
C       1.92      19.51       5.04
C       1.85      18.17       5.65
C       1.15      18.02       6.86
C       1.07      16.81       7.51
C       1.64      15.66       6.92
C       2.29      15.79       5.69
C       2.46      17.03       5.05
C       1.60      14.35       7.56
C       1.60      14.14       8.89
C       2.29      12.71      10.76
C       1.64      12.83       9.53
C       1.07      11.69       8.94
C       1.15      10.47       9.59
C       1.85      10.32      10.80
C       2.46      11.46      11.40
N       3.14      17.09       3.86
N       3.14      11.40      12.59
O       2.88       8.72      12.23
O       1.02       8.12      11.09
O       2.88      19.77       4.22
O       1.02      20.37       5.36
