9

N       2.52       5.87       5.71
N      -0.42       5.60       5.33
H       2.39       6.38       3.75
H       0.64       8.13       3.43
H      -0.80       7.13       3.04
H      -0.84       8.14       4.47
C       1.83       6.20       4.68
C       0.36       6.39       4.66
C      -0.17       7.52       3.85
