16

C      -0.95      -0.48      10.46
O      -2.97      -1.65      10.29
C       0.92       1.05      10.92
O      -1.89      -1.05       8.37
O       3.14       1.92      12.42
O       1.96       1.45      14.32
H       0.62       1.47       8.25
C      -0.34       1.32       8.80
C       2.10       1.52      13.05
C      -0.18       0.57      10.10
H       1.79       1.48      10.40
H       0.08       0.73      12.86
C       0.94       1.06      12.27
O      -1.38       1.80       8.41
H      -0.77      -0.97      11.42
C      -2.02      -1.09       9.63
