63

C       2.86       0.62       2.72
O       3.74      -2.93       2.81
H      -2.77       4.46      -1.45
C      -0.42      10.99       1.26
H      -0.88       5.96       2.12
C      -0.73       9.82       0.58
H      -7.29       0.18       0.33
C      -0.76       8.67       2.68
H      -5.19       1.41      -0.06
C      -0.47       9.88       3.29
H      -1.96       0.09       2.42
C      -5.82      -0.27       3.38
H       0.31       3.51       1.11
C      -1.83       3.67       0.97
H       3.79       1.04       3.11
C       1.60      -1.30       1.96
H      -0.25      11.94       0.75
C      -2.75       8.22      -3.22
H      -0.83       9.83      -0.50
C      -8.04      -1.13       2.60
H      -0.90       7.79       3.30
C      -6.78      -0.37       2.37
H      -0.37       9.96       4.37
C      -4.40       1.04       1.92
H      -6.02      -0.74       4.35
C      -4.63       0.41       3.16
H       1.56      -2.37       1.75
C      -3.12       1.74       1.68
H      -2.66       9.02      -2.48
C      -0.67       1.70       1.78
H      -3.89       0.49       3.95
C      -3.06       3.02       1.12
H      -3.99       3.53       0.84
C       0.55       0.89       2.00
H       1.80       2.50       2.73
C       1.75       1.43       2.49
H      -0.39      -0.91       1.26
C       0.51      -0.49       1.71
H      -3.06       9.53      -4.92
C      -2.60       6.88      -2.81
H      -2.65       4.82      -3.53
C       3.92      -1.68       2.81
H      -2.96       5.52      -5.92
C      -0.93       8.63       1.29
C      -1.34       7.41       0.56
C      -2.97       8.51      -4.56
O      -8.81      -1.42       1.64
C      -2.25       6.58      -1.41
C      -2.73       5.88      -3.79
C      -2.34       5.28      -0.88
C      -2.93       6.26      -5.11
C      -1.30       6.12       1.12
N      -1.79       7.62      -0.69
C      -1.82       5.04       0.40
N      -0.31      11.03       2.60
C       2.79      -0.76       2.48
N      -3.04       7.54      -5.49
O       5.05      -1.11       3.10
C      -6.55       0.25       1.13
O      -8.32      -1.48       3.82
C      -5.37       0.96       0.92
C      -1.92       1.10       2.01
C      -0.64       3.02       1.30
