44

O      13.23       5.76       3.24
O      14.52       6.24       5.35
O      15.21       4.41       3.88
O      10.01       0.28       6.65
O      11.28       0.81       8.76
O       9.32       2.17       8.06
H      13.39      -2.55       8.30
H      12.14       9.49       5.28
H      12.42       2.52       3.64
H      12.12       4.00       8.32
H      15.06       4.24       2.92
H      10.02       3.13       5.01
H       9.47       2.37       9.01
H      16.61       0.05       5.67
H      17.98      -0.84       6.18
H       8.45       8.66       9.00
H       8.82       7.25       8.15
H      14.53       3.38       6.94
C      13.52       3.33       6.53
C      12.35       2.84       4.68
C      12.20       3.67       7.28
C      14.03      -0.29       6.43
C      10.88       6.99       6.29
C      11.52       2.39       6.68
C      13.03       4.12       5.28
C      12.87       2.01       5.93
C      11.68       4.50       6.04
C      13.48       0.73       6.03
C      11.16       5.81       6.12
C      14.38      -2.33       7.91
C      11.32       9.47       5.99
C      16.16      -1.52       6.85
C       9.66       8.91       7.38
C      14.76      -1.36       6.97
C      10.62       8.35       6.50
C      11.03       3.19       5.43
S      13.97       5.32       4.40
S      10.56       1.22       7.58
N      16.57      -2.51       7.67
N       9.78      10.25       7.37
N      16.98      -0.83       6.00
N       8.68       8.26       8.10
N      15.46      -3.00       8.33
N      10.82      10.59       6.51
