22

H       5.82      15.89      14.39
H       1.79      17.16      13.60
H       6.72      13.86      13.24
H       1.51      15.34      11.92
H       6.44      12.04      11.56
H       2.40      13.30      10.80
C       4.28      11.50      10.06
C       3.83      16.62      14.09
C       4.40      12.58      11.09
C       5.79      13.75      12.69
C       5.63      12.74      11.78
C       3.35      13.44      11.33
C       3.49      14.52      12.24
C       4.74      14.68      12.94
C       4.88      15.75      13.85
C       2.60      16.46      13.39
C       2.44      15.45      12.47
C       3.94      17.70      15.12
O       3.11      11.12       9.72
O       5.38      11.07       9.59
O       2.83      18.15      15.55
O       5.10      18.05      15.50
