36

H      21.05      14.83       7.47
H      18.70      14.60       6.10
H      10.56      14.22       8.23
H      12.84      14.05       9.65
C      19.77      14.73       9.26
C      20.05      14.74       7.89
C      18.84      14.62       7.18
C      17.80      14.53       8.10
C      11.89      14.39       6.48
C      11.57      14.27       7.84
C      12.76      14.20       8.58
C      13.83      14.30       7.69
C      15.78      14.61      12.39
C      22.37      14.89      12.36
C       9.25      14.57       3.43
C      15.90      14.46       3.39
C      11.05      14.48       5.37
C      10.26      14.55       4.45
C      14.04      14.44       5.28
C      14.88      14.44       4.40
C      17.65      14.59      10.51
C      16.81      14.57      11.39
C      20.62      14.81      10.37
C      21.38      14.89      11.31
C      16.43      14.42       7.95
C      15.21      14.33       7.87
N      18.37      14.60       9.39
N      13.29      14.40       6.39
O      14.57      14.60      11.94
O      16.14      14.66      13.60
O      23.59      14.97      11.96
O      21.98      14.78      13.56
O       8.04      14.59       3.85
O       9.63      14.54       2.21
O      17.10      14.43       3.80
O      15.50      14.51       2.18
