22

H       3.16      15.08      14.73
H       8.59      13.19      12.93
H       4.54      14.79      15.82
H       7.21      12.12      13.27
H       4.17      18.04      11.94
H       7.58      15.84       9.84
H       4.09      16.46      15.37
H       7.66      12.50      11.58
C       5.08      15.33      13.82
C       6.67      14.10      12.64
H       3.27      17.35      13.32
H       8.48      14.50      10.59
C       4.17      15.43      15.00
C       7.58      12.91      12.59
H       4.77      18.27      13.60
H       6.98      14.18       9.69
N       5.88      16.15      11.72
N       5.88      14.25      13.71
C       4.27      17.56      12.92
C       7.48      14.89      10.37
C       5.09      16.31      12.81
C       6.66      15.06      11.61
