19

H      16.01      15.33       7.82
H      14.89      18.60      10.37
H      16.70      20.33      11.42
H      17.84      19.28      10.56
H      16.53      17.29      11.70
H      15.88      18.53      12.80
C      16.74      15.89       8.45
C      15.78      19.04       9.92
C      16.84      19.32      11.02
C      16.72      18.28      12.15
C      17.99      18.15      12.96
C      15.36      20.34       9.23
N      16.10      16.92       9.20
N      16.40      18.11       8.96
O      17.90      15.58       8.62
O      18.96      17.57      12.37
O      17.99      18.63      14.15
O      14.41      20.94       9.82
O      15.98      20.70       8.18
