20

C      33.56      17.91      28.34
C      31.50      16.80      26.59
C      32.43      17.24      28.82
C      32.63      17.48      26.09
C      31.45      16.71      27.98
C      33.62      18.01      26.93
C      31.74      16.78      30.08
C      30.63      16.18      29.14
H      32.30      16.04      30.67
H      31.41      17.58      30.75
H      29.63      16.63      29.24
H      30.52      15.08      29.17
C      30.43      16.22      25.71
O      29.49      15.62      26.33
O      30.55      16.38      24.46
C      34.60      18.47      29.25
O      34.38      18.30      30.50
O      35.60      19.06      28.73
F      32.83      17.65      24.77
F      34.65      18.63      26.31
