14

H      22.80      11.19       4.53
H      24.41      13.79       4.17
C      25.10      12.20       5.48
C      20.93      14.63       1.99
H      21.27      12.09       2.81
H      22.61      14.81       3.35
O      20.08      13.83       1.46
C      22.99      12.19       4.15
C      24.13      12.80       4.54
C      22.01      12.76       3.24
C      21.93      14.07       2.92
O      26.07      12.96       5.82
O      21.02      15.89       1.79
O      24.90      10.99       5.86
