80

H      10.05       9.55       9.36
H       0.86      20.01       7.71
H       9.52       9.08      11.73
H       1.39      20.48       5.34
H       7.43      10.00      12.75
H       3.48      19.57       4.32
H       5.85      11.32      11.34
H       5.07      18.24       5.73
H       6.35      11.72       8.95
H       4.56      17.84       8.12
H       9.25      10.20       7.14
H       1.66      19.37       9.93
H       7.63      10.93       6.95
H       3.28      18.64      10.12
H      12.75      13.14       6.02
H      -1.84      16.43      11.05
H      13.73      15.39       5.62
H      -2.82      14.18      11.45
H      12.33      17.42       6.01
H      -1.41      12.15      11.06
H      10.03      17.19       6.91
H       0.88      12.37      10.16
H       7.81      16.39       6.49
H       3.11      13.18      10.57
H       8.29      16.71       8.19
H       2.63      12.85       8.88
H       5.44      13.59       5.28
H       5.48      15.97      11.79
H       7.17      13.67       5.69
H       3.75      15.90      11.38
H       6.33      15.12       5.17
H       4.58      14.44      11.90
H       6.83      16.29       9.93
H       4.09      13.27       7.14
H       8.73      13.07       7.80
H       2.18      16.50       9.27
C       9.12       9.92       9.79
C       1.79      19.64       7.28
C       8.83       9.67      11.13
C       2.09      19.89       5.94
C       7.66      10.18      11.70
C       3.26      19.38       5.37
C       6.77      10.93      10.91
C       4.14      18.63       6.16
C       7.06      11.16       9.56
C       3.86      18.41       7.51
C       8.24      10.66       8.99
C       2.68      18.91       8.08
C       8.56      10.94       7.55
C       2.36      18.62       9.52
C      10.34      12.48       6.74
C       0.58      17.09      10.33
C      10.85      13.87       6.65
C       0.07      15.70      10.41
C      12.16      14.03       6.19
C      -1.25      15.53      10.88
C      12.71      15.29       5.97
C      -1.79      14.27      11.10
C      11.92      16.42       6.20
C      -1.01      13.14      10.87
C      10.62      16.30       6.69
C       0.30      13.26      10.38
C      10.08      15.03       6.93
C       0.83      14.53      10.14
C       7.90      15.95       7.50
C       3.02      13.61       9.57
C       6.61      15.37       8.00
C       4.30      14.20       9.07
C       5.84      14.51       7.19
C       5.07      15.06       9.88
C       6.21      14.20       5.76
C       4.71      15.36      11.31
C       6.22      15.63       9.32
C       4.70      13.94       7.75
N       9.19      12.25       7.40
N       1.72      17.32       9.67
O      10.95      11.54       6.15
O      -0.04      18.03      10.92
O       8.83      14.84       7.43
O       2.08      14.73       9.64
