48

H       3.05      -5.91      16.97
H       9.37      -7.27      15.24
H       9.67      -7.71      16.93
H       9.31      -8.97      15.73
H       7.29      -8.49      17.16
H       6.97      -8.11      15.48
H       7.26      -5.75      15.82
H       7.88      -5.95      17.45
H       8.44      -8.68      20.97
H       8.05      -7.35      22.08
H       7.37      -8.96      22.36
H       5.64      -7.44      21.36
H       6.00      -8.78      20.26
H       7.49      -7.38      18.93
H       7.32      -6.02      20.03
H       2.89      -5.60      19.29
H       4.74      -7.12      18.99
H       5.16      -7.11      16.80
H       5.54      -2.93      19.33
H       5.17      -2.84      17.02
H       6.90      -4.03      19.14
H       6.72      -3.65      16.83
H       3.17      -3.86      19.14
H       2.99      -4.15      16.82
C       4.92      -4.90      12.65
C       4.92      -4.85      23.45
C       5.54      -6.39      18.81
C       3.54      -4.85      18.82
C       3.54      -4.98      17.29
C       5.72      -6.27      17.25
C       6.78      -6.88      19.60
C       6.42      -7.87      20.72
C       7.63      -8.24      21.58
C       7.16      -6.37      16.72
C       7.57      -7.80      16.35
C       9.06      -7.95      16.05
C       4.93      -4.92      14.09
C       4.93      -4.89      22.02
C       4.98      -5.03      19.36
C       4.99      -4.98      16.75
C       5.73      -3.74      17.30
C       5.86      -3.86      18.84
C       4.97      -4.95      15.30
C       4.97      -4.98      20.81
O       3.77      -4.88      12.09
O       6.06      -4.89      12.08
O       6.06      -4.84      24.03
O       3.77      -4.82      24.02
