74

C       5.57      23.28       7.23
C       4.45      23.98       6.76
H       4.63      24.28       9.58
H       8.44      25.03      11.42
H       8.25      23.39       7.44
H      16.25      24.40       9.76
H      12.68      25.32      11.99
H      12.39      23.62       8.04
O      16.54      20.79       3.55
O      17.81      22.66       3.44
O       3.72      20.77       3.27
O       2.35      22.56       3.44
H      10.33      23.78       8.31
H      10.56      24.90      11.17
H      15.52      28.04      14.33
H      18.12      24.63      14.02
H      16.79      23.79      12.08
H      14.16      27.18      12.43
H      14.71      20.96       5.20
H      17.64      24.09       5.42
H      16.56      24.95       7.50
H      13.63      21.81       7.28
H       3.11      24.56      13.87
H       5.98      27.74      14.16
H       7.16      26.87      12.13
H       4.26      23.69      11.84
H       2.88      24.08       5.27
H       5.52      20.72       4.96
H       6.81      21.54       6.93
H       4.14      24.90       7.26
O       4.00      27.95      15.67
O       3.04      25.92      15.98
C      16.91      21.94       3.97
C       3.36      21.86       3.81
C      17.69      26.88      15.46
C       3.78      26.74      15.33
C       6.35      23.76       8.39
C       5.72      24.25       9.54
C       6.47      24.72      10.63
C       7.87      24.69      10.56
C       8.53      24.20       9.42
C       7.75      23.74       8.34
C      14.38      23.95       8.77
C      15.16      24.42       9.84
C      14.56      24.93      11.00
C      13.16      24.95      11.08
C      12.35      24.47      10.04
C      12.99      23.98       8.88
O      17.44      28.07      15.88
O      18.55      26.08      15.97
C       9.98      24.16       9.28
C      10.90      24.52      10.20
C      15.78      27.10      13.84
C      16.90      26.38      14.29
C      17.26      25.19      13.65
C      16.51      24.73      12.57
C      15.38      25.43      12.12
C      15.02      26.62      12.78
C      15.11      21.83       5.72
C      16.24      22.47       5.19
C      16.76      23.59       5.85
C      16.16      24.07       7.01
C      15.02      23.44       7.54
C      14.50      22.32       6.87
C       3.99      25.07      13.47
C       4.46      26.22      14.12
C       5.61      26.86      13.63
C       6.27      26.36      12.51
C       5.78      25.23      11.84
C       4.63      24.59      12.33
C       3.74      23.53       5.65
C       4.13      22.36       4.98
C       5.24      21.65       5.45
C       5.96      22.11       6.55
