16

O      17.51      12.41      13.93
S      17.20      14.70      12.34
S      20.12      17.47      11.19
O      19.79      12.37      14.14
C      19.77      14.96      12.62
C      17.53      17.17      10.87
C      18.72      14.11      12.95
C      18.58      18.02      10.56
H      16.51      17.38      10.55
C      17.97      16.07      11.63
C      19.36      16.09      11.87
O      19.59      19.97       9.76
O      17.40      19.55       9.24
F      21.05      14.75      12.97
C      18.69      12.87      13.73
C      18.52      19.27       9.80
