16

O       7.03       1.47       0.73
O       8.10       0.77       2.63
O       0.56       4.61       5.52
O       1.62       3.95       7.44
C       3.78       2.89       5.78
C       4.89       2.49       2.38
S       2.55       3.66       3.63
C       6.04       1.86       2.82
C       4.07       2.87       3.46
S       6.14       1.72       4.55
C       4.62       2.51       4.71
C       2.62       3.53       5.37
C       1.52       4.07       6.17
F       4.11       2.66       7.06
H       4.68       2.66       1.32
C       7.13       1.33       2.00
