38

O       4.32      18.97      11.99
O      -4.84      20.18      12.42
O      -4.84      19.46      10.25
H      -1.57      21.44       8.64
H      -2.00      15.47      12.99
O       4.23      21.12      11.25
H       0.85      22.78      14.95
H      -4.25      17.96       9.83
O       0.07      24.08      12.94
O      -1.93      22.59      13.32
O      -0.08      22.48      14.83
O      -2.95      15.54      11.59
O      -4.68      17.21      12.26
O      -3.78      17.06       9.95
O      -3.72      22.45      10.79
O      -1.26      22.94      10.49
O      -2.43      21.30       9.09
C       2.23      20.09      11.95
C      -2.80      19.49      11.51
C      -0.91      17.97      11.88
C      -2.28      18.17      11.74
C      -1.93      20.57      11.52
O       0.00      15.45      11.48
O       0.91      16.83      13.38
C      -0.57      20.41      11.91
O      -1.29      15.92      13.54
C      -0.02      19.10      11.81
C       1.41      19.03      11.61
C       1.63      21.25      12.52
C       0.27      21.46      12.44
C       3.72      20.05      11.71
C      -4.29      19.74      11.38
S      -0.17      16.41      12.54
S      -0.51      22.83      13.32
S      -3.51      16.86      11.49
S      -2.37      22.03      10.54
Cl       2.02      17.71      10.70
Cl       2.64      22.37      13.35
