33

H       8.76       4.04       1.72
H       6.43       3.31      -2.45
H       4.93       5.83       2.30
H       0.42       6.29      -1.75
H       0.75       6.40       0.73
H       4.28       4.05      -3.36
H       1.99       6.49       3.65
C       2.13       5.48      -3.58
C       7.20       5.35       3.55
C       7.42       3.93       0.06
C       6.86       4.98       2.14
C       1.35       5.96      -1.29
C       1.55       6.03       0.09
C       2.75       5.61       0.67
C       3.83       5.14      -0.13
C       3.57       4.97      -1.53
C       5.17       4.85       0.37
C       6.13       4.20      -0.49
C       5.74       3.86      -1.82
C       4.54       4.27      -2.32
C       5.59       5.26       1.65
C       7.77       4.29       1.34
C       2.35       5.44      -2.10
C       2.67       5.52       2.16
N       8.47       3.24      -0.72
O       0.95       5.23      -3.99
O       3.11       5.83      -4.31
O       6.24       5.71       4.30
O       8.43       5.24       3.91
O       9.27       2.55      -0.09
O       8.51       3.41      -1.95
O       2.90       4.51       2.81
O       2.20       6.67       2.71
