37

C      12.86       5.39      20.41
C      14.82       3.81      20.00
C      15.05       3.81      21.52
C      14.29       3.76      24.88
C      13.32       4.07      19.71
C      12.07       4.80      15.91
C      13.07       5.30      21.95
C      13.71       3.92      22.29
C      12.75       2.78      21.85
H      13.83       6.05      22.21
C      12.55       2.85      20.32
C      13.03       4.19      18.30
H      15.09       2.83      19.56
H      15.68       4.67      21.78
H      15.58       2.90      21.83
C      13.99       3.84      23.71
H      11.79       5.53      20.21
H      12.99       1.94      19.87
C      12.67       4.39      17.15
H      11.77       2.99      22.31
C      14.77       3.50      26.21
N      11.89       5.59      22.75
N      13.28       1.47      22.22
H      14.47       6.32      19.78
H      15.56       4.80      18.46
O      14.42       2.40      26.74
H      11.02       5.25      22.34
H      11.78       6.60      22.86
H      13.49       1.46      23.23
O      15.56       4.37      26.73
H      12.56       0.76      22.08
H      11.04       3.08      19.08
O      12.37       5.94      15.46
O      13.51       6.53      19.85
O      15.67       4.83      19.43
O      11.15       2.90      20.04
O      11.22       3.97      15.40
