16

C       4.85       5.62      15.09
C       4.80       5.65      17.97
C       3.64       5.63      15.81
C       6.00       5.64      17.25
C       3.62       5.64      17.21
C       6.03       5.62      15.85
O       5.86       5.29      20.05
O       3.71       6.02      20.06
C       4.88       5.60      13.59
C       4.78       5.65      19.48
F       2.45       5.66      15.19
F       7.20       5.68      17.86
F       2.41       5.63      17.79
F       7.24       5.58      15.27
O       3.83       5.19      12.99
O       5.95       6.00      13.03
