28

Br       5.41       1.38      25.70
Br      11.05       1.54      24.64
Br       5.42      -2.26      24.26
Br      11.12      -2.19      24.94
O       9.35       6.50      25.48
O       7.11       6.51      25.85
H      10.34       4.34      25.17
H       6.11       4.23      25.93
H      10.44      -5.04      24.88
O       7.24      -7.34      24.63
O       9.47      -7.24      25.04
H       6.17      -5.11      24.35
C       8.22       5.93      25.65
C       8.23       4.43      25.56
C       9.42       3.76      25.27
C       9.41       2.39      25.08
C       8.23       1.62      25.19
C       7.04       2.33      25.52
C       7.03       3.71      25.70
C       8.23       0.22      24.97
C       8.23      -0.98      24.79
C       8.26      -2.39      24.66
C       9.48      -3.12      24.76
C       9.50      -4.50      24.76
C       8.31      -5.22      24.64
C       7.09      -4.54      24.47
C       7.08      -3.15      24.48
C       8.34      -6.71      24.77
