28

C       4.30       2.96       2.97
C       2.34      -2.89      -3.02
C       4.37       2.07       1.91
C       2.30      -2.02      -1.93
C       3.23       1.32       1.53
C       3.43      -1.25      -1.59
C       3.30       0.41       0.45
C       3.37      -0.36      -0.49
H       1.15       0.93       1.95
H       5.48      -0.77      -2.10
H       1.03       2.58       3.83
H       5.56      -2.39      -4.01
O       1.90       4.40       5.28
O       4.72      -4.31      -5.35
H       5.17       3.54       3.27
H       1.47      -3.48      -3.29
H       5.30       1.94       1.35
H       1.39      -1.93      -1.33
O       4.16       4.52       5.24
O       2.45      -4.43      -5.33
C       3.04       4.10       4.81
C       3.57      -4.00      -4.90
C       2.02       1.51       2.24
C       4.61      -1.38      -2.36
C       1.96       2.42       3.28
C       4.65      -2.27      -3.43
C       3.09       3.15       3.66
C       3.52      -3.03      -3.76
