23

C       3.62      19.84       1.21
N      -1.52      16.01       0.00
C       3.62      19.84      -1.21
H      -1.43      16.04       2.06
O       5.62      21.76       1.14
C       4.13      20.33      -0.00
H      -1.43      16.03      -2.06
O       5.62      21.76      -1.14
C      -0.92      16.35       1.15
C       5.22      21.38      -0.00
H       0.66      17.35       2.17
C      -0.92      16.35      -1.15
H       0.66      17.35      -2.17
C       0.25      17.09       1.19
H       2.20      18.56       2.16
C       0.25      17.09      -1.19
H       2.20      18.56      -2.16
C       0.86      17.53       0.00
H       4.03      20.22       2.14
C       2.03      18.43      -0.00
H       4.03      20.22      -2.14
C       2.59      18.91       1.20
C       2.59      18.91      -1.20
