20

C       5.56       1.51       4.85
C       3.29       3.85       3.27
C       4.47       0.80       5.36
C       4.37       4.55       2.77
C       3.73       2.74       4.03
C       5.14       2.63       4.09
S       2.95       1.48       4.90
S       5.92       3.88       3.20
H       2.26       4.15       3.09
S       7.29       1.10       4.98
H       8.00       2.16       6.67
C       4.43      -0.40       6.21
C       4.33       5.77       1.96
O       3.28      -0.94       6.34
O       5.52      -0.77       6.75
O       5.47       6.25       1.61
O       3.18       6.25       1.67
O       7.62       1.26       6.55
O       7.49      -0.28       4.66
O       7.99       2.15       4.28
