20

H       3.26       9.99       6.68
H       4.47      17.33       9.62
H       2.68      12.43       6.60
H       4.73      14.85       9.86
H       6.13      13.14       9.14
H       3.50      14.51       5.71
N       4.94      10.27       7.86
N       3.87      17.24       7.64
F       6.72      10.63       9.20
F       3.17      17.06       5.50
C       5.45      12.50       8.59
C       3.70      15.07       6.62
C       5.67      11.13       8.54
C       3.59      16.45       6.61
C       3.86      10.74       7.19
C       4.28      16.65       8.79
C       3.55      12.09       7.15
C       4.42      15.28       8.91
C       4.37      13.00       7.85
C       4.15      14.46       7.80
