28

H       6.33       6.14      15.50
H       2.07       5.88      15.36
H       3.59       2.74      12.01
H       7.85       3.00      12.14
H       8.70       3.99      14.58
H       8.03       5.61      14.81
H       8.78       5.17      13.27
H       1.17       3.63      14.22
H       1.88       3.33      12.63
H       1.18       4.91      13.01
C       8.15       4.80      14.08
C       1.77       4.08      13.42
O       6.90       1.42      10.42
O       4.64       1.27      10.53
C       5.76       1.76      10.91
O       3.01       7.46      17.09
O       5.27       7.61      16.97
C       4.16       7.12      16.60
C       5.45       5.68      15.06
C       3.03       5.54      14.98
C       3.07       4.60      13.97
C       4.35       4.16      13.47
C       4.47       3.19      12.45
C       6.89       3.34      12.53
C       6.84       4.28      13.54
C       5.56       4.72      14.03
C       4.21       6.09      15.52
C       5.71       2.79      11.98
