22

H       4.91      -2.47      12.97
N       3.66      -2.96      11.40
H       9.25      -4.20       4.00
N      10.50      -3.71       5.57
N       7.15      -3.24       9.11
N       7.01      -3.43       7.86
H       2.55      -3.48       9.74
H      11.61      -3.19       7.23
H       4.57      -3.68       8.21
H       9.59      -3.00       8.76
H       7.01      -2.66      11.62
H       7.15      -4.01       5.35
C       4.88      -2.74      11.92
C       9.28      -3.93       5.05
C       3.56      -3.30      10.09
C      10.60      -3.37       6.88
C       5.94      -3.18       9.82
C       8.22      -3.50       7.15
C       4.67      -3.41       9.27
C       9.49      -3.26       7.71
C       6.04      -2.85      11.17
C       8.12      -3.83       5.80
