22

C       2.44       0.99      11.02
H       7.15      -1.29      11.11
H       1.87      -1.06      10.19
H       1.86      -0.98      11.97
H       2.02       1.52      11.88
H       2.06       1.45      10.10
H       7.60       2.27      11.34
H       8.34       0.73      11.52
N       7.60       1.28      11.11
C       4.98      -2.87      11.10
O       6.09      -3.47      10.91
C       5.15       2.99      11.10
O       3.86      -3.44      11.29
O       4.03       3.58      10.93
O       6.26       3.61      11.29
C       5.01      -1.38      11.10
C       5.15       1.51      11.08
C       3.86      -0.59      11.08
C       6.34       0.71      11.12
C       3.95       0.80      11.05
C       6.23      -0.70      11.11
C       2.34      -0.59      11.06
