20

H       4.31      13.17       6.45
H       0.60      14.44       6.47
H       4.62      10.67       6.41
H       0.25      16.93       6.51
H       1.36      10.08       8.88
H       3.52      17.50       8.98
C       3.63      12.52       6.99
C       1.27      15.08       7.03
C       3.81      11.14       6.97
C       1.06      16.46       7.05
C       1.98      10.80       8.35
C       2.90      16.78       8.44
C       1.73      12.17       8.41
C       3.17      15.41       8.45
C       2.57      13.06       7.73
C       2.34      14.53       7.74
Br       0.28      12.78       9.47
Br       4.65      14.79       9.47
N       2.99      10.31       7.63
N       1.86      17.28       7.75
