26

Cl       4.50      12.19       2.35
Cl       5.06       4.46      -2.37
H       5.41       9.72       1.78
H       4.12       6.91      -1.78
H       7.54       5.89       1.63
H       6.36       8.03       1.75
H       2.06      10.79      -1.68
H       3.19       8.61      -1.76
O       7.09       3.06      -1.01
O       2.56      13.64       0.92
O       8.13       3.75       0.88
O       1.45      12.92      -0.92
C       7.31       3.91      -0.08
C       2.31      12.77       0.01
C       3.07      11.49       0.06
C       6.53       5.18      -0.12
C       4.03      11.15       1.04
C       4.68       9.92       1.00
C       5.54       5.51      -1.07
C       4.87       6.72      -1.01
C       6.78       6.13       0.89
C       6.11       7.34       0.95
C       2.80      10.53      -0.93
C       3.44       9.30      -0.96
C       4.41       8.97       0.01
C       5.13       7.67      -0.01
