17

C      -2.03      -2.18       7.22
H       0.46      -2.20       6.20
H       2.13      -0.34       6.18
N      -3.77       0.69       8.68
O      -1.68      -3.07       8.04
O      -3.08      -2.18       6.48
C      -0.46       1.26       7.72
C      -1.42       0.25       7.66
C      -1.09      -1.01       7.12
C       0.20      -1.22       6.60
C       1.13      -0.19       6.60
C       1.83       2.14       7.29
C       0.82       1.04       7.19
O       2.83       2.10       6.47
C      -2.72       0.48       8.21
O       1.63       3.03       8.16
H      -0.69       2.22       8.18
