28

H       3.53       4.95       4.91
H       3.21       5.22       2.46
H       7.50       5.07       1.94
H       2.70       5.58      -1.90
H       6.64       5.63      -4.91
H       6.98       5.36      -2.46
C       4.40       5.95      -6.28
C       5.78       4.69       6.30
C       5.67       4.88       4.82
C       4.39       4.99       4.24
C       4.21       5.14       2.88
C       5.33       5.17       2.01
C       6.62       5.06       2.57
C       6.76       4.93       3.94
C       5.17       5.27       0.61
C       5.03       5.35      -0.60
C       4.86       5.46      -2.00
C       3.57       5.58      -2.55
C       3.42       5.72      -3.92
C       4.51       5.75      -4.80
C       5.79       5.61      -4.23
C       5.98       5.46      -2.87
O       3.26       5.82      -6.82
O       4.70       4.32       6.88
O       6.90       4.89       6.86
O       5.49       6.24      -6.87
F       8.03       4.81       4.42
F       2.16       5.87      -4.38
