39

C       2.15      11.20       5.23
H       2.66      10.61       2.68
H       2.51      13.33       1.25
C      -2.51      13.31       5.32
C       2.19      11.57       2.43
H      -1.07      11.96       7.26
C       2.85      12.33       1.54
H       1.67      13.34       7.11
C       4.10      11.85       0.92
C      -0.18      12.33       6.74
C       0.77      12.88       7.52
C       0.56      13.06       8.98
O      -3.38      16.65       1.03
O      -4.54      14.70       1.13
O       4.55      10.71       1.29
O       4.66      12.62       0.06
H      -1.64      15.52       2.52
O       1.38      13.85       9.57
H      -2.50      13.07       6.39
H      -3.22      12.91       2.12
C      -3.54      15.44       1.41
O      -0.42      12.44       9.52
H       0.43      11.77       0.48
C      -2.44      14.85       2.21
H       0.15      13.51       0.56
C      -2.40      13.54       2.48
C      -1.26      12.90       3.19
H      -1.23      12.42       0.58
C      -0.15      12.47       2.45
H       2.42      10.26       4.74
H      -3.43      12.90       4.87
C       0.96      11.95       3.14
H       1.95      11.00       6.29
C       0.95      11.83       4.55
H       3.03      11.85       5.17
C      -0.16      12.29       5.28
C      -1.29      12.80       4.59
H      -2.59      14.41       5.23
C      -0.20      12.54       0.94
