29

H     -19.09      13.90      18.23
H     -17.01      12.53      17.86
H     -19.44       9.05      17.14
H     -21.51      10.42      17.54
S     -16.65       9.72      17.45
H     -15.21      11.43      15.62
H     -14.19      10.94      13.38
H     -16.01       7.04      13.39
H     -17.01       7.51      15.65
O     -21.49      14.25      18.51
O     -22.70      12.32      18.49
O     -17.04       8.41      17.95
O     -15.60      10.49      18.07
O     -14.60       7.49      11.46
O     -13.34       9.38      11.67
C     -21.63      13.00      18.32
C     -20.41      12.23      17.91
C     -19.15      12.85      17.97
C     -18.00      12.09      17.75
C     -18.12      10.73      17.46
C     -19.38      10.12      17.34
C     -20.52      10.88      17.58
C     -16.17       9.50      15.74
C     -15.40      10.48      15.11
C     -14.83      10.21      13.87
C     -15.04       8.96      13.27
C     -15.86       8.00      13.88
C     -16.43       8.27      15.12
C     -14.28       8.59      12.03
