28

H       4.05       4.71       4.73
H       4.02       4.84       2.24
H      -0.16       5.63       4.83
H       3.86       4.94      -4.64
H      -0.37       5.77      -4.53
H      -0.34       5.64      -2.04
C       1.94       4.95       6.41
C       1.74       5.58      -6.22
C       1.95       5.14       4.93
C       3.13       4.94       4.20
C       3.11       5.01       2.81
C       1.91       5.28       2.11
C       0.76       5.52       2.89
C       0.75       5.45       4.27
C       1.86       5.27       0.71
C       1.83       5.23      -0.51
C       1.78       5.24      -1.92
C       2.94       5.02      -2.70
C       2.94       5.09      -4.08
C       1.74       5.39      -4.74
C       0.55       5.56      -4.00
C       0.57       5.49      -2.62
O       3.06       4.69       6.97
O       2.86       5.49      -6.81
O       0.62       5.86      -6.77
O       0.81       5.05       7.00
F      -0.41       5.80       2.24
F       4.11       4.75      -2.05
