28

H       5.34       9.79       8.04
H      -3.77       7.72      11.25
H      -3.99      10.22       7.96
H       5.37       7.21      11.26
H       0.65      10.18       8.97
H       0.81       7.31      10.08
H       2.88       6.96      11.18
C       2.85       9.86       7.41
C      -1.14       7.76      11.71
H      -1.49      10.46       7.87
N       5.43       8.56       9.69
N      -3.96       8.95       9.59
O      -1.61       6.84      12.36
O       1.69      10.00       7.03
H      -0.17       8.22      11.99
H       3.69      10.26       6.78
C       4.74       9.21       8.75
C      -3.22       8.30      10.51
C       3.35       9.16       8.62
C      -1.83       8.38      10.55
C       2.62       8.37       9.55
C      -1.16       9.16       9.57
C       3.38       7.62      10.47
C      -1.96       9.85       8.64
C       4.76       7.75      10.53
C      -3.34       9.72       8.68
C       1.17       8.26       9.68
C       0.28       9.25       9.41
