40

H      10.03       7.16       0.63
H       7.89       3.41       0.52
H       5.71       7.14       0.49
H      10.03      11.50       0.54
H       7.92      15.27       0.59
H       5.72      11.56       0.64
C       7.86       7.31       0.57
C       9.09       6.61       0.59
C       9.10       5.21       0.58
C       7.88       4.50       0.53
C       6.66       5.19       0.50
C       6.65       6.60       0.52
C       7.87      11.36       0.59
C       9.10      12.06       0.57
C       9.12      13.46       0.56
C       7.91      14.18       0.59
C       6.68      13.50       0.62
C       6.67      12.09       0.62
C      12.36       2.79       0.66
C       3.39       2.77       0.48
C      12.45      15.79       0.48
C       3.37      15.87       0.66
C      11.36      14.85       0.49
C      10.35      14.18       0.52
C       5.47      14.24       0.65
C       4.47      14.93       0.68
C      10.31       4.47       0.61
C      11.28       3.73       0.64
C       5.45       4.44       0.45
C       4.48       3.71       0.43
C       7.86       8.73       0.58
C       7.86       9.95       0.59
O      13.55       3.24       0.62
O      12.02       1.56       0.70
O       2.21       3.21       0.34
O       3.72       1.55       0.71
O      13.65      15.34       0.49
O      12.10      17.02       0.49
O       2.18      15.43       0.66
O       3.73      17.10       0.61
