28

C       9.44       4.59       8.94
C      10.65       3.88       8.89
N       8.53      -0.29       8.97
N       9.62       0.36       8.93
Cl       5.93      -4.56       9.06
Cl      12.22       4.63       8.83
O      10.36       6.79       8.91
O       8.11       6.55       9.00
H      10.84      -4.33       8.88
H      10.84      -1.81       8.89
O       7.79      -6.72       8.99
O      10.04      -6.48       8.89
H       6.55      -1.87       9.04
H      11.60       1.94       8.85
H       7.31       4.40       9.01
C       9.30       6.09       8.95
H       7.31       1.89       9.01
C       8.85      -6.02       8.94
C       8.71      -4.52       8.95
C       9.90      -3.76       8.91
C       9.91      -2.38       8.92
C       8.69      -1.69       8.96
C       7.49      -2.42       9.01
C       7.49      -3.81       9.00
C      10.66       2.49       8.89
C       9.46       1.76       8.93
C       8.24       2.45       8.98
C       8.24       3.83       8.98
