42

O       7.13       4.30      10.29
C       0.62       2.56      13.43
C      -0.05       3.21      12.31
H       2.48       0.11      19.21
C      -1.26       3.89      12.53
H       0.27       0.12      20.46
C      -1.91       4.52      11.48
H      -1.79       0.77      19.23
C      -1.38       4.49      10.18
H      -1.62       1.44      16.81
C      -0.17       3.80       9.96
H      -1.70       3.93      13.53
C       0.48       3.16      11.01
H      -2.85       5.05      11.65
C      -2.14       5.11       9.05
H       0.23       3.77       8.95
C       3.19       2.52      12.94
H       1.40       2.62      10.82
C       4.19       1.53      12.90
H       4.06       0.59      13.43
C       5.36       1.75      12.18
H       6.13       0.98      12.13
C       5.56       2.95      11.49
H       4.77       4.91      11.06
C       4.59       3.96      11.57
H       2.66       4.53      12.34
C       3.41       3.74      12.28
H      -1.13       2.10      14.62
C       6.78       3.10      10.63
C       1.54       0.37      18.73
N       1.63       0.73      17.44
C       0.32       0.37      19.41
N       2.03       1.65      14.94
C      -0.83       0.75      18.72
N      -0.09       2.12      14.53
C      -0.74       1.12      17.38
O      -1.60       4.99       7.89
C       0.52       1.12      16.77
O      -3.25       5.66       9.29
C       0.78       1.58      15.42
O       7.40       2.08      10.24
C       1.97       2.26      13.71
