23

C       6.21      10.69      12.03
C       4.04       9.79      13.45
C       7.91       9.92      13.04
C       7.69      10.86      11.79
C       2.41      10.90      11.98
O       3.71      12.47      10.06
O       5.94      12.17       9.78
H       3.18       9.45      14.02
H       8.39       8.96      12.83
H       8.43      10.39      13.89
H       8.08      11.88      11.92
H       8.07      10.47      10.84
O       4.32       8.22      15.65
O       6.58       8.11      15.48
H       2.63       9.83      10.39
C       4.84      11.96      10.39
O       1.91      10.30      10.85
O       1.69      11.56      12.69
C       5.43       8.52      15.10
C       5.32       9.40      13.90
C       4.95      11.06      11.56
C       6.40       9.87      13.16
C       3.84      10.58      12.32
