26

O       8.12      -2.78      19.29
O       6.94      -1.57      20.81
H       6.97      -4.73      21.74
H       7.57      -5.24      20.15
H       6.01      -6.98      20.13
H       5.42      -6.46      21.71
O       2.31      -6.68      20.79
H       5.03      -6.04      18.03
O       3.54      -7.75      19.21
H       3.71      -4.87      18.09
H       6.56      -4.28      18.04
H       5.24      -3.12      18.14
H       2.83      -4.10      20.37
H       3.52      -4.76      21.84
H       5.09      -3.03      21.89
H       4.39      -2.37      20.42
C       7.12      -2.59      20.06
C       3.31      -6.78      20.01
C       6.67      -4.96      20.71
C       5.63      -6.11      20.69
C       4.31      -5.63      20.03
C       4.64      -5.18      18.59
C       5.66      -4.02      18.61
C       6.06      -3.69      20.07
C       4.81      -3.28      20.86
C       3.77      -4.43      20.83
