44

N      -2.99       9.33      12.45
N      -6.81       7.94      11.38
N     -10.97       7.19      11.21
N     -10.87       7.32       8.81
H      -5.84       8.15      13.83
H      -7.31       7.53      12.18
H      -3.58       8.99      14.42
H      -2.60       9.55      10.42
H      -4.81       8.76       9.67
H      -9.25       7.42      12.30
H      -8.99       7.63       7.98
N      -5.19       4.83      12.45
N     -17.73       6.23      11.38
C      -5.53       8.39      11.68
C      -5.15       8.47      13.04
C     -11.53       7.18       9.98
C      -7.42       7.93      10.14
C      -3.89       8.94      13.37
C      -8.87       7.60      10.14
C      -3.35       9.25      11.15
C      -4.59       8.79      10.72
C      -9.66       7.41      11.28
N     -13.57       6.97      11.21
C      -9.55       7.52       8.91
H     -18.70       6.01      13.83
H     -17.23       6.64      12.18
N     -13.67       6.85       8.81
H      -4.60       5.18      14.42
H      -3.37       5.41       9.67
H     -15.29       6.75      12.30
H     -15.55       6.54       7.98
H      -5.58       4.62      10.42
O      -6.84       8.22       9.09
O     -17.70       5.95       9.09
C     -19.01       5.77      11.68
C     -13.01       6.99       9.98
C     -17.12       6.24      10.14
C     -19.39       5.70      13.04
C     -15.67       6.57      10.14
C      -4.29       5.23      13.37
C      -3.59       5.37      10.72
C     -14.88       6.76      11.28
C      -4.83       4.92      11.15
C     -14.99       6.65       8.91
