20

N      18.68      14.48      19.01
N      23.78      11.81      21.13
C      21.20      16.42      18.17
C      21.24      10.13      22.33
O      20.14      17.12      18.11
O      22.34      16.72      17.67
O      20.12       9.51      22.32
O      22.28       9.88      23.02
C      20.10      14.36      19.35
C      22.36      12.09      20.99
C      21.16      15.15      18.92
C      21.29      11.32      21.44
C      21.92      13.24      20.28
C      20.53      13.28      20.15
O      17.90      13.96      19.83
O      18.36      15.03      17.95
O      24.52      12.82      21.12
O      24.16      10.64      21.18
S      22.69      14.54      19.47
S      19.76      11.98      20.96
