22

O       3.27       5.77      12.95
O       3.29       8.03      12.72
O      -3.67       7.93      13.31
O      -3.69       5.68      13.04
H      -2.77       5.36      10.94
H       2.21       5.57      10.63
C      -1.62       6.83      12.97
C      -0.96       6.13      11.90
C      -0.86       7.56      13.86
C      -1.68       5.44      10.90
C      -1.02       4.85       9.85
C       1.22       6.90      12.79
C       0.54       7.60      13.77
C       0.47       6.18      11.81
C       1.13       5.55      10.72
C       0.39       4.91       9.76
C       2.72       6.91      12.81
C      -3.11       6.81      13.13
F       1.21       8.30      14.71
F      -1.43       8.24      14.88
F      -1.70       4.21       8.87
F       1.00       4.33       8.69
