36

N      -1.79      -2.90       6.65
N       2.92      -0.21       1.00
H      -1.12      -0.95       6.19
N       3.05      -0.87      -0.08
N      -1.51      -4.14       6.12
N       2.43       3.61      -6.46
N       1.80       2.48      -6.92
H       3.54       4.10      -4.73
H       3.08       3.08      -2.46
F       3.41      -2.13      -2.47
H       3.26       1.85      -0.31
H       1.56       0.52      -6.16
H       2.29       0.84       3.26
H       0.85      -0.17       5.02
H       3.18      -0.69      -4.59
H       2.24      -2.86       1.08
H       0.80      -3.88       2.81
H      -0.25      -4.89       4.60
C      -1.06      -2.01       5.95
C       2.73       1.99      -4.92
C       0.67      -2.08       4.03
C       1.13      -2.84       2.93
C       1.94      -2.29       1.95
C       2.33      -0.94       2.05
C       1.96      -0.20       3.19
C       1.14      -0.76       4.16
C       3.27       1.31      -1.26
C       3.17       1.99      -2.46
C       3.29      -0.10      -1.22
C       3.07       1.29      -3.68
C       3.20      -0.11      -3.67
C       3.32      -0.77      -2.46
C      -0.62      -4.01       5.13
C      -0.28      -2.66       4.97
C       2.99       3.33      -5.27
C       1.98       1.50      -6.01
