24

O       2.17      13.06       1.74
O       0.40      14.53       0.86
O       0.10      12.06       1.05
H       1.66      15.09      -1.13
H       4.11      12.17      -4.92
H       2.44      12.21      -5.54
H       1.91      10.11      -4.26
H       3.57      10.09      -3.60
H      -0.86      12.43       1.32
C       1.54      10.37      -0.67
C       2.61      15.34      -3.64
C       2.40      14.08      -2.89
C       1.80      11.67      -1.40
C       2.62      12.81      -3.41
C       1.63      12.96      -0.85
C       2.30      11.65      -2.70
C       1.88      14.13      -1.58
C       3.05      12.04      -4.64
C       2.71      10.73      -3.83
S       1.06      13.25       0.80
O       0.49       9.73      -0.97
O       2.45      10.00       0.15
O       1.70      16.24      -3.50
O       3.65      15.43      -4.36
