19

C      29.87      19.04      25.12
H      29.77      18.61      31.04
S      29.87      20.96      28.73
S      29.79      16.89      27.81
H      31.70      19.58      24.96
C      30.03      22.05      26.21
O      29.96      23.14      26.87
O      30.16      21.93      24.95
C      29.80      15.83      30.37
O      29.80      16.00      31.64
O      29.83      14.72      29.74
O      31.03      19.10      24.42
O      28.87      18.56      24.62
C      29.91      19.50      26.55
C      29.78      18.35      29.99
C      29.95      20.82      27.00
C      29.78      17.04      29.54
C      29.81      19.25      28.90
C      29.83      18.60      27.64
