14

C      18.06       2.74       2.37
C      18.03       3.96       3.25
O      18.05       2.95       1.11
H      20.15       5.94       4.73
H      15.86       4.13       3.33
O      18.07       1.62       2.97
O      18.00       7.13       6.94
O      17.99       8.46       5.08
N      19.22       4.45       3.63
N      16.79       5.63       4.43
C      19.19       5.53       4.41
C      17.98       6.12       4.81
C      16.82       4.55       3.65
C      17.98       7.34       5.68
