16

O       7.57       4.70       6.14
C       8.27       5.97       8.62
O       8.97       4.71      11.10
H       8.27       4.88       8.62
C       8.06       8.08       7.44
C       7.77       5.98       6.13
C       8.48       8.08       9.81
H       7.91       8.60       6.49
C       8.77       5.98      11.11
O       7.73       6.66       5.07
H       8.63       8.60      10.75
O       8.81       6.66      12.17
C       8.27       8.78       8.62
C       8.04       6.67       7.43
H       8.27       9.87       8.62
C       8.50       6.67       9.81
