34

N      -7.66      10.23       8.50
H      -8.87       7.49       9.73
N      -2.32      -2.80      10.96
H      -5.56       9.98       8.47
H      -5.69       2.72      11.43
H      -4.94       0.39      11.47
H      -1.18       1.56       9.72
N      -1.58      -2.53       9.85
H      -1.93       3.91       9.69
H      -3.32       5.29       8.55
H      -4.58       7.33       7.98
H      -6.96       6.84      11.54
H      -5.68       4.82      12.12
H      -3.59      -1.68      12.23
H      -1.27      -0.78       8.69
C      -2.61      -0.62      10.50
C      -8.21       8.27       9.36
C      -6.52       9.54       8.70
C      -6.81       8.28       9.26
C      -4.69       2.48      11.08
C      -4.27       1.16      11.09
C      -3.02       0.79      10.56
C      -2.19       1.81      10.08
C      -2.61       3.14      10.06
C      -3.88       3.50      10.53
C      -4.11       5.63       9.22
C      -4.82       6.79       8.90
C      -5.91       7.20       9.68
C      -6.17       6.49      10.87
C      -5.45       5.35      11.19
C      -4.45       4.85      10.34
C      -2.95      -1.68      11.36
C      -1.75      -1.22       9.56
N      -8.70       9.43       8.89
