24

H       5.74       2.05      10.57
H       6.00      -2.91      10.51
H       9.76      -1.46       7.87
H       9.71       1.04       8.03
H       3.95       1.74      11.94
H       4.17      -2.84      11.87
C       7.84       2.58       8.99
C       7.95      -3.17       8.72
C       7.86       1.10       9.10
C       6.83       0.35       9.76
C       8.92       0.44       8.49
C       5.80       0.96      10.53
C       4.88       0.22      11.24
C       7.93      -1.71       8.96
C       8.95      -0.95       8.41
C       6.88      -1.09       9.71
C       5.93      -1.83      10.47
C       4.95      -1.21      11.21
O       8.97       3.17       9.03
O       9.09      -3.75       8.71
O       6.84      -3.76       8.51
O       6.72       3.16       8.82
O       3.89       0.77      12.00
O       4.03      -1.88      11.97
