10

Al       3.91      -6.97      12.08
O       2.84      -7.58      13.56
O       2.84      -7.95      10.82
C       1.95      -6.87      14.13
C       1.95      -8.81      11.14
C       5.91      -5.24      10.96
O       4.94      -6.05      10.76
O       4.94      -6.29      13.53
O       4.94      -8.58      11.94
O       2.84      -5.39      11.86
