84

Co       0.92      13.65       0.97
Co       9.40      19.18       2.23
Co      -7.55      17.51      -3.19
Co      -3.31      19.87      -0.99
Co      -3.32      14.38      -2.18
Co       5.16      16.09       3.17
H       0.17      16.21       1.67
H       8.64      18.52      -0.34
H      -8.31      15.62      -1.33
H       1.75      16.11       1.78
H      10.22      18.66      -0.30
H      -6.73      15.58      -1.48
H      -2.55      17.38      -1.79
H      -2.55      14.93       0.38
H       5.93      18.03       1.41
H      -4.13      17.39      -1.70
H      -4.13      15.01       0.33
H       4.34      17.95       1.37
C       4.83      22.84      -1.08
C      -3.65      12.82      -4.71
C       4.84      14.69       5.79
C       0.41      10.60       0.88
C       8.89      20.64       4.92
C      -8.06      19.11      -5.80
C       0.10      11.82      -1.30
C       8.58      18.14       4.95
C      -8.37      20.39      -3.65
C      -0.85      13.01      -1.24
C       7.62      17.59       3.89
C      -9.33      19.75      -2.65
C       2.90      12.86      -0.95
C       2.90      17.92       3.87
C      -5.57      19.56      -2.92
C       2.34      11.53      -0.43
C       2.35      19.03       4.77
C      -6.13      19.78      -4.33
C      12.76      21.80       1.13
C      -4.19      15.26      -4.91
C       4.29      13.29       3.78
C      11.83      20.59       1.16
C      -5.12      15.88      -3.87
C       3.36      13.87       2.72
C       7.13      20.64       0.99
C      -1.35      15.71      -3.84
C      -1.34      13.99       2.85
C       6.60      21.97       0.44
C      -1.87      14.57      -4.71
C      -1.87      13.80       4.27
N       0.92      11.65      -0.09
N       9.40      19.27       4.49
N      -7.55      19.42      -4.40
N       5.21      21.84      -0.02
N      -3.26      14.24      -4.37
N       5.21      14.26       4.40
O      -0.63      13.94      -0.41
O       7.85      17.85       2.66
O      -9.10      18.56      -2.25
O       0.94      15.65       1.45
O       9.42      18.59       0.25
O      -7.53      16.10      -1.70
O      -3.33      17.89      -1.47
O      -3.33      14.96      -0.23
O       5.15      17.50       1.69
O      -1.80      12.98      -2.08
O       6.67      16.88       4.33
O     -10.28      20.48      -2.25
O       2.39      13.93      -0.49
O       2.39      17.79       2.71
O      -6.09      18.63      -2.23
O       3.86      12.79      -1.77
O       3.86      17.24       4.34
O      -4.61      20.31      -2.57
O      12.05      19.62       0.35
O      -4.90      15.67      -2.64
O       3.58      15.05       2.28
O      10.91      20.62       2.02
O      -6.04      16.62      -4.34
O       2.44      13.10       2.31
O       6.60      19.57       0.54
O      -1.88      15.86      -2.69
O      -1.87      14.91       2.15
O       8.10      20.72       1.80
O      -0.38      16.37      -4.31
O      -0.37      13.25       2.52
