23

Zn       7.71      16.70      10.62
Zn       6.10      17.62       8.00
Zn       6.10      19.47      10.62
Zn       4.50      16.70      10.62
C       8.66      16.15       7.89
C       6.10      20.57       7.89
C       8.66      19.10      12.05
C       3.55      19.10      12.05
O       6.10      17.62       9.97
O       8.81      16.04       9.14
C       6.10      14.68      12.05
O       6.09      19.44       7.28
O       7.69      16.72       7.28
O       8.83      17.88      11.71
C       3.55      16.15       7.89
O       6.12      20.76       9.14
O       7.68      19.84      11.73
O       4.52      19.85      11.71
O       7.24      15.15      11.73
O       4.53      16.70       7.28
O       4.97      15.13      11.71
O       3.39      17.87      11.73
O       3.38      16.07       9.14
