54

Zr      10.80       2.51       6.09
Zr      14.34       5.99       5.80
Zr      12.47       4.14       3.43
Zr      12.68       4.35       8.44
Zr      10.81       6.04       5.93
Zr      14.33       2.45       5.94
H       9.71       4.19       4.08
H      12.68       7.10       7.80
H      15.27       4.13       3.87
H      12.62       1.54       8.03
C       8.08       4.31       6.17
C      12.57       8.72       5.72
C      17.04       4.17       5.89
C      12.54      -0.25       6.01
C      10.21       1.80       3.02
C      10.35       2.20       9.27
C      15.04       6.55       8.90
C      14.66       6.42       2.64
C      10.30       6.42       2.72
C      14.59       1.80       2.74
C      14.95       2.16       9.16
C      10.41       6.54       9.16
O       8.65       3.17       6.22
O      13.71       8.13       5.69
O      16.48       5.31       5.81
O      11.41       0.34       6.10
O      11.04       2.64       2.54
O      11.24       3.03       9.64
O      14.18       5.73       9.38
O      13.81       5.55       2.26
O      10.02       6.75       3.93
O      14.93       1.55       3.95
O      15.19       1.80       7.95
O      10.09       6.81       7.95
O      13.73       2.68       2.37
O      14.11       3.04       9.54
O      11.32       5.73       9.55
O      11.10       5.50       2.36
O       9.97       1.62       4.26
O      14.98       6.69       3.85
O      15.23       6.78       7.66
O      10.06       1.87       8.07
O      13.69       0.31       6.00
O       8.66       5.45       6.11
O      11.43       8.14       5.78
O      16.45       3.03       5.90
O      12.62       2.31       7.44
O      14.50       4.15       4.45
O      12.63       6.29       7.28
O      10.52       4.21       4.62
O      12.53       5.66       4.85
O      11.14       4.31       7.05
O      14.08       4.26       6.92
O      12.52       2.73       4.97
