14

Zn       8.89      12.16       7.50
Zn      10.41      14.39       7.73
O      11.64      13.86       9.17
O       9.96      11.10       6.26
O      11.17      13.00       6.39
O       8.28      13.60       6.12
O       9.66      15.40       6.24
O       7.64      12.60       8.92
O       8.76      14.57       8.93
C      11.36      12.64       9.48
C      11.00      11.81       5.97
C       8.69      14.72       5.72
C       7.82      13.81       9.32
O      10.45      11.94       8.96
