23

Zn      17.75       5.04      32.06
Zn      14.53       4.87      31.84
Zn      16.28       2.18      31.90
Zn      16.00       3.95      34.53
C      16.12       7.02      30.58
C      13.78       2.45      30.33
C      18.87       2.72      30.60
C      16.14       1.00      34.60
C      18.51       5.51      34.87
C      13.41       5.34      34.53
O      16.14       4.02      32.57
O      17.27       6.61      30.97
O      13.52       3.66      30.65
O      17.92       1.89      30.87
O      14.99       6.49      30.82
O      18.96       3.93      30.97
O      14.77       1.76      30.72
O      16.26       0.83      33.33
O      17.51       4.90      35.35
O      16.02       2.11      35.21
O      18.77       5.67      33.62
O      13.31       5.45      33.27
O      14.36       4.79      35.19
