21

Zn      -1.39       2.92       6.73
H       0.66       1.41       7.86
H      -3.44       4.43       5.60
H      -0.66       0.50       7.83
H      -2.12       5.33       5.63
C      -1.58       3.29       9.70
C      -1.20       2.54       3.76
C      -1.19       5.34       8.68
C      -1.59       0.50       4.78
N      -1.41       4.01       8.58
N      -1.37       1.83       4.89
N       1.40       3.86       5.64
N      -4.19       1.98       7.83
O      -0.33       1.44       7.77
O      -2.46       4.40       5.69
O       0.29       4.22       6.16
O      -3.08       1.62       7.30
O       1.66       2.67       5.38
O      -4.44       3.17       8.09
O       2.25       4.79       5.38
O      -5.03       1.05       8.08
