15

Cu       9.23       2.05      19.34
Cu       9.54       2.50      22.29
Cu       8.53       4.84      20.06
C      11.13      -0.07      19.87
C      10.99      -0.15      22.08
C       7.18       4.78      17.35
C       7.36       2.57      17.17
C       9.01       4.78      23.99
C       8.99       6.39      22.47
N      10.30       0.93      21.66
N      10.37       0.96      20.28
N       8.06       2.96      18.25
N       7.93       4.33      18.38
N       8.96       5.21      21.83
N       9.00       4.20      22.78
