10

Al       3.83       4.30       7.46
C       1.86       4.35       9.52
O       2.75       3.36       6.21
O       2.75       3.69       8.89
O       2.75       5.86       7.27
O       4.86       2.69       7.27
O       4.86       5.28       6.15
O       4.86       4.95       8.95
C       1.86       2.49       6.47
C       1.86       6.07       6.38
