18

Al       5.14      17.39       5.74
O       4.62      18.50       4.24
Al       1.81      17.41       5.73
O       7.96      16.30       7.23
H       3.47      15.65       5.63
O       4.61      18.76       6.98
H       6.80      19.15       5.83
O       1.28      16.05       4.48
C       3.49      18.81       3.76
O       5.67      16.30       7.24
C       6.82      16.00       7.70
O       2.34      18.51       4.23
C       3.48      19.21       7.34
O       3.48      16.61       5.80
C       6.82      15.59       4.13
O       6.81      18.20       5.66
O       2.35      18.82       6.93
O       5.68      15.99       4.53
