10

Al       0.00       6.74       0.00
O      -1.09       8.30      -0.23
O      -1.09       5.76      -1.24
O      -1.09       6.16       1.47
O       1.09       7.72      -1.24
O       1.09       7.32       1.47
O       1.09       5.18      -0.23
C      -2.07       4.96      -1.02
C      -2.07       6.74       2.05
C      -2.07       8.51      -1.02
