20

Zn       7.37       5.97      12.10
Zn       4.62       5.97      12.08
N       2.55       5.94      12.30
N       9.45       5.93      11.88
O       7.11       7.26      10.54
O       4.87       7.51      10.71
O       4.79       4.66      10.55
O       7.02       4.41      10.75
O       4.97       4.43      13.46
O       7.21       4.68      13.65
O       7.13       7.53      13.45
O       4.89       7.28      13.62
C       5.99       7.79      10.17
C       5.91       4.14      10.19
C       6.08       4.15      14.00
C       6.01       7.81      13.99
C       1.72       5.97      11.26
C       2.06       5.89      13.56
C      10.27       5.97      12.92
C       9.94       5.87      10.62
