15

N       1.53       6.57      24.21
N       2.67       7.08      24.79
N       5.80       5.23      24.25
N       5.99       4.43      23.14
N       3.12       3.86      20.91
N       1.88       4.19      21.40
Cu       4.26       6.23      24.41
Cu       1.73       5.37      22.81
C       0.46       7.09      24.85
C       2.29       7.92      25.77
Cu       4.59       4.27      21.95
C       6.66       4.84      25.21
C       6.98       3.56      23.43
C       0.95       3.50      20.71
C       2.95       2.96      19.91
