9

N       6.79       6.06      27.33
Zn       5.87       7.26      28.77
I       5.93       6.01      30.97
C       7.87       9.19      29.99
I       3.86       8.33      27.58
N       7.24       8.83      28.86
C       7.45       9.55      27.74
C       6.16       5.65      26.21
C       8.06       5.65      27.55
