10

Al       0.28      -5.02       8.70
C       2.31      -5.10      10.74
O       1.34      -4.00       7.49
O       1.34      -4.49      10.20
O       1.34      -6.59       8.42
O      -0.79      -3.45       8.53
O      -0.79      -5.96       7.43
O      -0.79      -5.66      10.15
C       2.31      -3.22       7.75
C       2.31      -6.75       7.62
