20

Zn      18.33      13.21      14.39
O      16.80      12.25      11.71
Zn      17.91      10.96      12.84
O      19.44      13.81      12.79
O      19.89      11.97      15.05
O      16.35      10.78      14.23
C      19.87      10.70      14.96
C      16.37      11.32      15.39
C      16.35      13.35      12.19
C      19.89      12.97      11.93
C      18.15      15.00      16.73
C      18.09       8.14      11.99
C      19.53      15.88      15.08
C      16.71       9.37      10.59
N      18.71      14.91      15.51
N      17.53       9.31      11.65
O      16.62      13.84      13.32
O      19.62      11.74      11.87
O      19.11      10.03      14.18
O      17.13      12.29      15.74
