18

O       2.70      17.13      24.00
O      -0.63      19.34      26.99
Al       2.17      18.22      25.50
O       2.70      16.83      26.73
O       1.64      19.30      27.00
O       4.97      17.17      23.98
O       3.83      19.05      25.59
O       0.50      17.43      25.40
Al       5.50      18.25      25.49
O       6.03      19.64      24.26
C       3.84      16.83      23.52
C       0.51      19.64      27.47
C       3.85      16.45      27.13
C       0.51      20.03      23.85
H       3.82      19.85      26.13
H       0.49      16.62      24.86
O       4.97      16.87      26.71
O       1.64      19.60      24.28
