11

C       3.54      10.47       9.51
Zn       1.34       9.98      11.42
O       1.30       8.39      12.55
O       2.73       9.67      10.11
N      -0.32      10.21      10.34
N      -1.49       9.60      10.69
N       1.72      11.60      12.51
C       1.15      12.07      13.63
N       2.53      12.58      12.03
C       0.28       7.95      13.21
C      -0.56      10.94       9.24
