18

Al       1.23      11.61       4.56
O       0.75      10.50       3.05
Al       4.55      11.66       4.56
O       0.62      10.28       5.77
O       2.90      10.82       4.52
O      -1.61      10.61       6.09
O      -1.51      10.28       3.31
H       2.93       9.95       4.08
H      -0.39      13.30       4.01
O      -0.42      12.46       4.51
C       2.93      13.30       2.79
C       2.81      13.23       6.35
C      -0.48      10.11       6.40
C      -0.40      10.05       2.73
O       3.93      13.01       5.78
O       4.07      12.82       3.08
O       1.82      13.00       3.34
O       1.71      12.68       6.07
