20

Zn       8.73       7.47      11.80
Zn       5.79       7.48      11.80
C       7.11      10.07      11.48
C       7.11       4.88      12.12
C       7.37       7.09       9.22
C       7.36       7.88      14.38
C       3.02       7.71      10.63
C      11.51       6.48      12.42
C       3.02       7.21      12.93
C      11.50       8.46      11.16
N       3.71       7.47      11.78
N      10.81       7.47      11.79
O       8.23       9.49      11.78
O       6.08       5.57      12.46
O       8.23       5.45      11.83
O       6.08       9.38      11.14
O       8.47       7.40       9.77
O       6.26       8.11      13.77
O       8.46       7.57      13.83
O       6.28       6.83       9.84
