10

Al       3.93      14.25      16.45
C       5.91      14.15      14.36
C       5.91      16.11      17.41
C       5.91      12.48      17.58
O       4.99      13.38      17.79
O       4.99      13.52      15.03
O       4.99      15.84      16.53
O       2.86      12.66      16.67
O       2.86      15.23      17.71
O       2.86      14.85      14.97
