18

Al       0.67      12.10       9.89
Al       4.04      12.11       9.93
C       2.34      13.98      11.42
C      -1.03      10.23       8.40
C       2.37      13.37       7.85
C      -1.00      10.84      11.97
O       3.50      13.12       8.38
O       0.13      11.09      11.44
O       1.21      13.55      11.02
O      -2.16      10.65       8.80
O       1.22      13.10       8.32
O      -2.15      11.11      11.50
O       0.12      10.66       8.75
O       3.49      13.55      11.07
O       2.36      11.32      10.03
O      -1.01      12.89       9.79
H       2.36      10.35       9.93
H      -1.01      13.85       9.89
