23

O       7.72      16.91       4.71
C       6.67      20.21       2.17
O       6.20      17.01       6.40
C       7.00      16.38       5.63
Zn       8.45      20.93       6.90
O       4.04      21.03       5.15
Zn       8.06      18.84       4.42
O       4.14      19.34       6.67
Zn       5.97      21.32       4.81
Zn       6.03      18.90       6.84
C       3.51      20.11       5.87
O       7.16      20.03       5.71
C       7.34      23.57       6.20
O       6.04      21.08       2.85
O       7.52      19.37       2.61
C      10.70      19.54       5.53
O       8.21      22.89       6.83
O       6.50      23.13       5.35
O      10.02      18.91       4.66
O      10.26      20.39       6.37
C       7.24      19.87       9.36
O       8.16      20.59       8.83
O       6.47      19.07       8.73
