18

Al       3.11       5.09       7.43
Al       6.42       5.13       7.44
H       4.80       3.55       6.65
H       1.43       5.72       9.04
O       2.62       3.23       7.65
O       0.29       5.39       5.62
O       5.84       6.94       7.50
O       3.68       5.20       9.29
C       1.47       2.67       7.60
C       1.41       5.26       5.04
C       4.70       7.51       7.41
C       4.80       5.06       9.88
O       3.60       6.92       7.19
O       5.93       4.92       9.31
O       0.36       3.27       7.41
O       2.52       5.06       5.63
O       4.77       4.49       6.89
O       1.45       5.65       8.07
