10

Al       0.09      28.67      24.83
O       1.19      27.10      24.74
O       1.19      29.53      23.51
O       1.19      29.38      26.23
O      -0.98      27.61      23.64
O      -0.98      28.16      26.34
O      -0.98      30.23      24.51
C       2.13      30.37      23.69
C       2.13      28.80      26.87
C       2.13      26.83      23.92
