18

Al       3.14       5.08       5.31
Al       6.47       5.12       5.27
H       4.81       4.48       3.69
H       1.48       6.66       5.99
O       2.61       3.24       5.37
O       0.34       5.19       3.40
O       5.95       7.00       5.28
O       3.67       4.89       7.14
O       3.69       6.93       5.33
O       5.92       4.97       7.10
O       0.35       3.29       5.37
O       2.61       5.18       3.46
C       1.47       2.68       5.44
C       1.49       5.12       2.85
C       4.80       7.54       5.39
C       4.81       4.83       7.70
O       4.81       4.57       4.66
O       1.48       5.70       5.86
