40

Gd       1.27       9.13       8.74
Gd      -1.27      11.66       1.75
Gd       1.27      11.66       5.24
Gd      -1.27       9.13      12.24
C       3.85      10.40       6.99
C      -3.85      10.40      13.99
C       0.00      14.24       3.50
C      -0.00       6.55      10.49
C      -2.19       9.65       9.37
C       2.19      11.14       2.38
C       0.75       8.20       5.87
C      -0.75      12.59      12.87
C      -2.19      11.14       4.61
C       2.19       9.65      11.61
C       0.75      12.59       8.11
C      -0.75       8.20      15.10
O       3.26       9.51       7.69
O      -3.26      11.28      14.69
O       0.89      13.66       4.20
O      -0.89       7.13      11.19
O       3.26      11.28       6.29
O      -3.26       9.51      13.28
O       0.89       7.13       9.79
O      -0.89      13.66       2.79
O      -2.80       9.55      10.48
O       2.80      11.24       3.49
O       0.85       7.60       6.99
O      -0.85      13.20      13.98
O      -2.80      11.24       3.50
O       2.80       9.55      10.49
O       0.85      13.20       7.00
O      -0.85       7.60      13.99
O      -0.92       9.48       9.29
O       0.92      11.31       2.29
O       0.92       9.47       5.79
O      -0.92      11.32      12.78
O      -0.92      11.31       4.70
O       0.92       9.48      11.69
O       0.92      11.32       8.20
O      -0.92       9.47      15.19
