10

Al       3.89       8.61       9.94
C       6.00       8.58       7.91
C       6.00      10.37      10.93
C       6.00       6.87      10.97
O       4.95       7.56      11.11
O       4.95       8.12       8.44
O       4.95      10.15      10.26
O       2.77       7.05      10.12
O       2.77       9.54      11.19
O       2.77       9.23       8.50
