54

Hf      12.67      15.91      15.05
Hf      11.68      13.94      17.77
Hf      15.81      16.37      16.50
Hf      14.58      13.13      15.96
Hf      12.92      17.16      18.32
Hf      14.84      14.38      19.21
H      11.92      13.19      15.05
H      13.83      18.34      16.00
H      16.93      14.01      17.32
H      12.43      15.14      20.26
C      12.77      12.38      20.41
O      16.16      18.39      17.04
O      15.74      17.49      14.53
O       9.88      14.05      16.23
O      12.87      14.48      13.15
O      11.43      17.78      15.23
O      11.68      18.60      17.34
O      14.19      12.79      13.90
O      10.66      15.42      14.60
O      13.69      17.13      13.64
O      12.11      15.79      17.04
O      14.50      15.13      15.52
O      12.44      13.75      15.65
O      13.83      17.41      16.30
O      11.82      12.68      19.63
O      17.56      16.34      18.09
O      13.13      11.20      15.98
O      10.90      16.98      19.32
O      14.48      18.99      18.45
O      16.51      13.37      14.81
O      15.94      12.42      19.10
O      14.74      15.94      21.09
O      15.79      11.64      16.97
O      13.30      17.55      20.39
O      11.36      11.90      17.22
C      11.05      18.50      16.22
C       9.83      14.56      15.07
C      13.39      13.33      13.05
O      10.15      14.88      18.92
O      16.81      14.93      19.70
O      14.74      16.20      18.26
C      17.62      15.81      19.24
C      11.96      11.09      16.43
C      14.19      17.07      21.19
O      17.30      15.45      15.27
C      17.25      14.38      14.57
O      13.84      13.08      20.61
C      10.16      15.98      19.58
O      13.69      13.48      17.77
C      15.63      19.13      17.94
O      16.00      14.28      17.27
C      16.36      11.73      18.12
O      12.77      15.16      19.35
C      14.79      17.78      13.74
