13

Zn       6.83      23.60      17.38
C       6.80      25.18      14.83
C       7.86      26.31      18.32
C       9.14      22.12      18.53
N       7.31      24.15      15.53
C       7.21      25.07      19.98
N       7.31      25.08      18.64
C       7.85      20.71      17.49
C       8.21      23.53      14.69
N       4.92      23.05      17.48
C       4.39      22.28      18.44
N       7.96      22.03      17.89
C       3.90      23.29      16.57
