20

Zn       6.79       5.23       8.61
Zn       4.06       5.29       8.62
C       5.46       7.86       8.80
C       9.51       6.27       8.07
C       9.52       4.23       9.15
C      10.90       6.29       8.08
C       5.39       5.72       6.02
C       5.52       5.43      11.21
C       5.40       2.69       8.46
C      10.91       4.23       9.15
N       8.83       5.25       8.61
N      11.58       5.27       8.62
O       6.54       7.23       9.06
O       4.30       3.29       8.70
O       4.33       7.32       8.55
O       6.52       3.26       8.23
O       6.49       5.86       6.66
O       4.36       5.46      10.68
O       4.31       5.31       6.53
O       6.56       4.93      10.66
