23

Zn      13.38      16.46      24.73
Zn      13.38      13.28      24.73
Zn      15.60      14.87      23.08
Zn      15.71      14.87      26.30
C      10.88      14.87      24.71
O      13.71      17.54      26.33
O      13.71      12.20      26.33
O      15.22      16.34      27.53
O      15.22      13.40      27.53
O      13.52      17.49      23.07
O      13.52      12.26      23.07
O      15.22      16.45      21.96
O      15.22      13.30      21.96
O      17.51      14.87      23.49
O      17.59      14.87      25.77
O      11.46      16.01      24.77
O      11.46      13.73      24.77
O      14.53      14.87      24.72
C      14.27      17.30      22.05
C      14.27      12.44      22.05
C      18.13      14.87      24.60
C      14.31      17.22      27.41
C      14.31      12.52      27.41
