18

Al       1.10      17.26      15.58
Al       4.48      17.28      15.53
C      -0.68      19.03      17.18
O       1.71      15.85      14.48
O       0.55      18.27      14.04
O       1.64      16.28      17.15
O       0.47      18.68      16.74
C      -0.58      18.68      13.60
O       2.78      18.11      15.48
O      -1.80      18.56      16.85
O       3.95      16.05      14.18
O      -0.62      16.48      15.62
O       3.89      16.10      16.91
O      -1.71      18.49      14.14
H       2.79      19.04      15.76
H      -0.63      15.54      15.38
C       2.81      15.55      13.89
C       2.79      15.86      17.49
