23

Zn       3.11       9.35      10.25
Zn       5.47       7.38      10.63
Zn       5.80       9.65       8.43
Zn       3.75       7.27       7.88
C       5.09       4.90       9.07
C       4.33      11.95       9.55
C       3.58       8.06      12.82
C       5.12       8.70       5.70
C       7.98       8.80      10.16
C       1.01       8.08       8.60
O       4.52       8.41       9.26
O       7.18       8.27      11.00
O       1.78       7.26       7.99
O       7.64       9.30       9.02
O       1.39       9.02       9.38
O       2.80       8.79      12.12
O       4.23       7.86       6.06
O       5.59       5.50      10.08
O       5.23      11.51       8.75
O       4.44       5.43       8.11
O       3.55      11.25      10.29
O       4.59       7.41      12.39
O       5.84       9.42       6.47
