18

Al       0.88      10.93       8.88
Al       4.22      10.91       8.93
O      -1.89      11.99       7.44
H       2.54      12.60       9.26
H      -0.76       9.16       9.11
C       2.57       9.04       7.41
C       2.50       9.58      10.94
C      -0.80      12.83      10.41
C      -0.76      12.21       6.83
O       3.66       9.88      10.46
O       1.43       9.46       7.81
O       0.36      11.83       7.27
O       1.40      10.01      10.50
O       0.32      12.45       9.95
O       3.70       9.52       7.74
O       2.56      11.75       8.79
O      -1.94      12.33      10.15
O      -0.79      10.13       9.08
