12

Cu       3.20       3.66       7.88
O       3.15       1.77       8.55
C       2.50       5.59       5.84
O       1.40       4.00       8.69
C       2.60       0.85       7.86
O       4.83       3.22       6.83
C       0.33       3.74       8.04
C       4.77       2.70       5.67
C       4.76       5.71       9.62
N       4.32       4.44       9.62
C       4.64       3.67      10.68
O       3.09       5.45       6.97
