18

O       5.27       8.48       5.95
Al       1.45       6.94       6.67
O       0.98       5.55       5.45
Al       4.77       6.84       6.78
O       4.11       7.85       8.28
O       3.14       7.01       5.88
C       3.12       4.99       8.23
O       6.45       6.76       7.58
C       6.29       8.78       5.23
O       5.35       5.74       5.28
O       4.28       5.26       7.78
O       2.04       5.57       7.86
O       7.44       8.22       5.38
O       1.93       8.37       7.88
H       6.55       6.05       8.23
H       3.22       7.68       5.19
C       3.06       8.57       8.45
C       6.47       5.22       4.97
