23

Zn       7.23      18.66       0.95
Zn       8.92      20.29      -1.20
Zn       8.79      17.07      -1.22
Zn      10.55      18.68       0.95
O       8.89      18.67      -0.10
O       6.27      20.35       0.82
O       9.35      19.73      -3.07
O       7.35      15.84      -0.75
O       7.21      21.21      -1.07
O       6.04      17.15       0.57
O       8.47      17.63      -3.11
O      10.47      16.10      -1.08
O      10.01      18.94       2.86
O      11.55      17.02       0.70
O       7.83      18.29       2.82
O      10.33      21.54      -0.71
O      11.69      20.22       0.54
C       6.38      21.24      -0.10
C       8.94      18.68      -3.64
C       6.31      16.06      -0.03
C      11.38      16.11      -0.19
C       8.90      18.63       3.40
C      11.40      21.32      -0.05
