13

C      -0.00      12.78      17.27
N       1.12      12.39      16.62
N       3.50      14.51      16.09
N       3.44      13.02      18.98
N       4.13      11.36      16.25
C       2.86      15.02      15.02
C       4.22      10.07      16.64
Zn       3.02      12.82      17.04
C       0.69      11.73      15.49
C       4.62      15.30      16.27
C       2.97      13.98      19.85
C       4.95      11.46      15.14
C       4.26      12.24      19.70
