20

Zn      11.47       7.06      11.35
Zn       8.71       6.66      11.76
C      10.53       4.31      11.44
C      10.36       6.88      14.14
C       9.45       9.38      11.44
C      10.00       6.75       8.96
C       6.53       5.05      12.77
C       5.57       6.64      11.37
C      14.42       6.93      11.66
C      13.68       8.71      10.35
N      13.42       7.66      11.17
N       6.67       6.01      11.86
O      11.55       5.01      11.12
O      11.13       7.24       9.30
O       9.12       6.31       9.77
O       9.47       4.74      12.00
O      11.38       6.87      13.37
O       9.14       6.89      13.77
O      10.65       8.97      11.48
O       8.41       8.66      11.58
