54

Zr      -1.76      15.69       1.45
Zr       1.78      17.73      -1.45
Zr      -1.77      17.72      -1.44
Zr       1.79      15.69       1.44
Zr       0.01      14.67      -1.44
Zr       0.01      18.75       1.44
H      -2.78      15.10      -1.13
H       2.80      15.11      -1.14
H       0.00      19.92      -1.14
H       0.01      16.71       3.41
O      -2.46      13.62       0.97
O       2.48      16.59      -3.23
O       2.56      19.75      -0.90
O      -2.54      16.87       3.17
O      -3.90      17.39      -0.91
O       1.16      14.41       3.17
O       3.92      16.08       0.95
O      -1.14      18.92      -3.22
O      -1.33      14.60      -3.21
O      -1.41      20.40       0.97
O       1.42      18.86       3.15
O       1.34      12.97      -0.91
O      -2.56      19.75      -0.88
O       2.57      16.90       3.16
O       2.48      13.61       0.95
O      -2.46      16.57      -3.23
O      -3.90      16.10       0.96
O       1.13      18.92      -3.23
O       3.92      17.41      -0.89
O      -1.11      14.40       3.17
O      -1.41      18.84       3.16
O      -1.33      12.97      -0.89
O       1.34      14.62      -3.23
O       1.43      20.40       0.96
O       0.01      16.71       2.44
O       0.00      19.01      -0.81
O       2.00      15.56      -0.82
O      -1.98      15.55      -0.81
O       0.01      16.71      -1.80
O       0.01      15.02       0.60
C      -2.18      12.79       0.04
O      -1.46      17.55       0.60
O       1.48      17.56       0.60
C      -2.27      18.03       3.64
C      -4.49      16.75       0.03
C       0.02      14.06       3.64
C       2.19      15.44      -3.71
C      -0.01      19.25      -3.71
C      -2.18      15.42      -3.70
C      -2.27      20.58       0.05
C       2.29      20.58       0.03
C       4.52      16.75       0.03
C       2.29      18.05       3.63
C       2.19      12.78       0.03
