18

Al      -2.58       2.73       5.97
Al      -6.01       2.72       5.95
H      -4.30       3.46       7.55
H      -0.88       1.64       4.56
O      -1.99       4.53       6.13
O      -4.31       3.21       6.62
O      -0.86       2.23       5.33
C      -0.87       2.23       8.31
C      -0.88       5.13       6.07
C      -4.28       3.25       3.62
C      -4.28       0.31       5.84
O      -2.03       2.36       7.79
O       0.29       4.56       6.06
O      -5.42       3.05       4.18
O      -3.17       0.91       5.79
O      -3.14       3.11       4.18
O      -5.45       0.87       5.85
O      -6.61       2.42       7.74
