22

Zn       4.28       6.18      13.92
Zn       7.08       5.93      14.03
C       5.60       3.46      14.17
C       5.85       8.64      13.74
C       5.73       5.72      11.38
C       5.59       6.41      16.56
C       0.54       4.78      14.14
C       1.31       7.32      13.79
C       1.45       5.59      15.10
C       0.41       6.51      12.83
C       1.37       5.31      12.95
C       0.48       6.79      14.98
N       2.27       6.12      13.91
N      -0.42       5.99      14.02
O       4.52       4.13      14.08
O       6.92       7.98      13.59
O       6.77       3.91      14.37
O       4.66       8.20      13.81
O       4.60       6.00      11.90
O       6.73       6.38      15.98
O       6.81       5.53      12.03
O       4.46       6.32      15.97
