36

Zn       7.64      11.91       9.09
N       7.36      13.37      10.46
N       5.91      13.53       7.23
Zn      10.27      13.11      10.67
N       5.97      12.37       7.97
Zn       7.63      14.62       7.19
N       8.46      13.87      11.07
N       8.84      11.91       7.45
N       7.47      15.79       8.80
N       9.74      11.18      11.00
N       8.72      16.03       6.16
N      11.37      14.70      11.28
N       8.57      10.71      10.43
N       8.77      13.06       6.71
N      11.23      12.89       8.94
N      11.29      13.95       8.09
N       9.93      16.34       6.73
N       8.61      16.43       9.20
N      11.48      15.76      10.41
Zn      10.43      15.69       8.65
C       6.32      13.46      11.30
C       8.54       9.38      10.58
C       9.19      12.80       5.46
C       8.27      17.65       9.63
C      12.23      12.04       8.63
C      11.95      15.04      12.44
C       4.69      13.62       6.69
C      12.13      16.75      11.05
C       9.32      10.94       6.64
C       4.78      11.76       7.88
C      12.32      13.78       7.24
C       6.42      16.62       9.01
C      10.42      10.12      11.49
C       8.11      14.28      12.31
C       8.56      16.83       5.08
C      10.49      17.31       6.00
