16

Cu       5.06       6.85       6.85
Si       1.07       6.85       6.85
C       6.20       6.85       4.09
C       6.22       6.85       9.57
C       3.92       6.85       9.61
C       3.90       4.12       6.85
C       6.20       4.09       6.85
C       6.22       9.58       6.85
C       3.92       9.61       6.84
C       3.90       6.85       4.12
N       5.06       6.85       4.81
N       5.06       6.85       8.89
N       5.06       4.81       6.85
N       5.06       8.89       6.85
F       2.80       6.87       6.87
F       7.32       6.83       6.83
