18

C      -1.23      14.30       8.93
C       3.34      10.78       7.91
Mg      -0.92      11.81       7.16
Mg      -3.20      13.56       6.65
Mg       1.37      13.13       8.42
O       0.63      13.01       6.53
O      -0.05      14.19       9.39
C       1.06      13.42       5.38
C      -1.24      12.96       4.35
C       3.33      15.42       9.04
C       1.04      10.13       8.83
O      -2.33      10.44       7.59
O      -4.62      13.87       5.24
O      -1.65      13.51       8.00
O       2.92      11.99       7.69
O      -1.82      12.62       5.51
O       2.75      14.58       8.17
O       0.46      11.30       8.54
