20

Zn      18.73      22.42      13.06
Zn      19.03      24.17      10.84
O      20.78      22.33      12.73
O      21.05      24.06      11.30
O      19.30      22.39       9.81
O      18.56      21.07      11.50
O      17.02      23.82      10.72
O      16.77      22.91      12.77
O      19.07      24.10      14.21
O      18.80      25.45      12.42
C      21.49      23.15      12.07
C      18.94      21.28      10.30
C      16.32      23.39      11.68
C      18.95      25.23      13.66
C      19.46      20.07      14.67
C      17.85      21.29      15.79
C      19.96      25.47       8.37
C      18.27      26.74       9.30
N      18.61      21.12      14.71
N      19.05      25.65       9.35
