20

Zn      14.87      13.69       6.91
C      14.48      12.44       9.66
Zn      16.89      13.93       8.96
C      16.88      11.51       7.13
C      19.62      13.45       9.86
C      18.44      14.69      11.42
C      17.29      15.17       6.21
N      13.28      13.55       5.64
N      18.48      14.07      10.23
O      14.31      15.53       7.76
O      15.89      15.67       9.39
C      14.88      16.11       8.74
O      13.97      12.79       8.54
O      15.59      12.84      10.12
O      17.45      12.09       8.11
O      15.87      11.94       6.48
O      17.79      14.82       7.33
O      16.17      14.77       5.74
C      12.15      14.17       6.01
C      13.32      12.93       4.45
