15

Cu      11.49       3.91       1.70
Cu      13.53       4.02       4.11
Cu      11.65       1.50       3.76
C      13.19       6.11       0.79
N      13.63       5.31       2.80
N      12.76       5.25       1.74
N      10.30       2.51       1.53
N      10.40       1.44       2.40
C       9.37       2.20       0.60
C      14.60       6.21       2.49
N      13.63       2.65       5.34
C      13.37       0.54       5.94
C      14.53       2.38       6.31
N      12.90       1.50       5.11
C       9.54       0.50       1.98
