35

Zn      -2.35      -2.86       7.94
Zn      -0.98      -4.84       4.47
Zn      -3.88      -5.63       6.02
Zn      -0.23      -1.83       6.24
C      -3.03      -4.85      10.05
C      -2.57      -0.59       4.68
C       0.56      -5.60       6.81
C      -4.83      -4.32       3.59
C      -2.90      -8.42       5.20
C       0.33       0.12       8.69
C      -1.11      -7.91       4.02
C      -1.28      -0.72       9.93
C       0.64      -3.84       8.12
C      -3.18      -6.63       8.75
C      -4.20      -1.24       6.05
C      -2.97      -3.88       2.50
C      -6.73      -6.37       7.16
C       1.36      -1.39       3.73
C       0.86      -3.29       2.69
N      -3.08      -4.44       8.76
N      -2.75      -7.08       5.22
N      -0.32      -0.82       7.96
N      -1.63      -6.78       4.49
N      -1.32      -1.34       8.74
N      -0.42      -3.69       7.25
N      -3.17      -5.55       7.96
N      -3.06      -1.91       6.36
N      -2.67      -4.03       3.81
N      -5.81      -5.65       6.50
N       0.79      -2.24       4.62
N       0.48      -3.39       3.99
N      -6.12      -4.30       6.60
N      -2.08      -1.51       5.53
N      -3.82      -4.31       4.48
N      -0.45      -4.81       6.45
