18

Zn       5.94       8.02      13.97
O       8.45       7.79      11.93
O       6.18      10.06      14.21
O       6.23       8.25      11.97
O       6.24       7.78      15.97
Zn       8.69       8.02      13.97
O       8.40      10.05      13.71
O       8.45       8.27      16.00
C       2.74       8.02      13.89
C      11.89       8.02      13.88
C       7.29       5.42      13.96
C       7.33       8.02      11.37
C       7.29      10.62      13.95
C       7.34       8.03      16.57
N       3.90       8.02      13.96
N      10.74       8.02      13.95
O       6.17       5.98      13.72
O       8.39       6.00      14.20
