36

Zn      -1.21      -2.67       8.44
Zn      -4.03      -6.60       8.47
Zn      -1.30      -5.63       7.01
Zn      -3.84      -3.79      10.12
N      -0.19      -2.89       6.68
N      -2.94      -8.06       7.54
N      -0.30      -5.43       8.73
N      -2.65      -5.29      10.67
N      -2.76      -6.47      10.02
N      -0.22      -4.19       9.29
N      -2.78      -2.20      10.88
N      -1.72      -7.63       7.06
N      -5.64      -6.05       9.55
N      -3.06      -5.03       6.28
N      -4.18      -2.89       8.37
N      -4.21      -5.45       6.86
N      -3.08      -2.30       7.82
N      -5.57      -4.89      10.29
N      -0.20      -4.14       6.12
N      -1.68      -1.69      10.22
C       0.58      -2.10       5.90
C      -1.23      -0.64      10.92
C      -2.87      -9.40       7.69
C       0.75      -6.16       9.17
C      -2.04      -5.50      11.85
C      -2.24      -7.44      10.80
C       0.88      -4.15      10.07
C      -2.99      -1.45      11.97
C      -6.88      -6.55       9.67
C      -0.92      -8.71       6.95
C      -3.34      -4.58       5.04
C      -5.24      -2.07       8.20
C      -5.22      -5.28       5.98
C      -3.46      -1.09       7.35
C      -6.78      -4.70      10.86
C       0.57      -4.12       5.02
