20

Zn       3.29       5.21       7.56
Zn       3.00       7.99       7.71
C       3.27       6.44      10.24
C       5.70       6.98       7.54
C       0.58       6.24       7.70
C       3.01       6.68       5.03
C       3.66      10.89       7.85
C       3.20       2.41       8.54
C       1.40      10.46       7.50
C       4.31       2.62       6.51
N       2.64      10.02       7.72
N       3.64       3.17       7.53
O       3.58       5.38       9.62
O       3.16       7.77       5.68
O       2.92       7.54       9.71
O       2.94       5.51       5.54
O       5.22       5.83       7.29
O       1.04       7.42       7.53
O       5.04       8.04       7.80
O       1.28       5.19       7.90
