21

Ni       3.41      -0.32       8.09
C       4.77      -2.47       6.31
C       2.05       1.84       9.86
N       4.15       1.51       7.39
N       2.67      -2.14       8.78
N       1.76      -0.34       6.85
N       5.05      -0.29       9.32
H       3.58       2.17       7.95
H       3.24      -2.81       8.22
H       1.12       0.31       7.32
H       5.69      -0.94       8.85
O       4.68      -1.24       6.66
O       2.13       0.61       9.51
C       5.55       1.58       7.84
C       1.27      -2.21       8.33
C       3.96       1.72       5.94
C       2.86      -2.35      10.23
C       2.09       0.17       5.50
C       4.72      -0.80      10.67
C       1.20      -1.70       6.89
C       5.62       1.07       9.28
