64

Mn      -0.18       8.21       7.68
O      -3.17       9.77       6.89
Mn       2.80       7.11       6.46
O       1.46       7.10       4.86
Mn       5.66       8.37       7.77
O      -0.38       8.20       5.60
O       1.81       8.98       7.55
Mn      -5.14       9.38       6.26
O       3.65       8.09       8.43
O       4.13       8.49       5.60
C       0.40       5.48       7.70
O       6.36       8.62       5.59
C      -2.28      10.46       7.47
O       5.86       6.35       7.37
O       4.09       5.48       6.26
O       5.48      10.43       7.83
O      -6.25      11.11       6.75
O       6.70       8.13       9.66
O       8.14       8.18       7.95
O       0.16       8.03       9.82
C       0.31       7.64       4.70
O      -4.55       7.61       5.08
O      -4.64      10.47       4.39
C       2.73       8.98       8.45
C       5.25       8.46       4.98
H      -1.21       9.37      10.54
H       1.73       7.53      11.49
H       2.03       8.65      12.86
H       1.00       7.21      13.10
H      -0.87       8.97      13.83
C       5.25       5.40       6.81
H       0.20      10.33      13.39
C       6.21      11.32       7.29
H      -1.37      10.11      12.56
H      -2.90       7.02       6.15
H      -3.93       5.25       2.75
H      -4.68       4.12       3.92
H      -5.30       5.79       3.76
H      -1.79       5.20       5.92
H      -2.70       3.76       5.37
C       7.85       7.89       9.17
H      -1.69       4.67       4.21
C      -0.34       8.73      10.73
H      -6.37      10.36       3.28
C       1.29       7.99      12.39
H      -3.31      12.55       1.84
C      -0.51       9.59      13.00
H      -2.93      11.35       3.12
C      -3.65       6.80       5.38
H      -2.83      10.88       1.40
H      -5.11      10.61       0.16
C      -4.40       5.17       3.74
H      -6.57      10.78       1.17
C      -2.35       4.76       5.09
C      -5.30      10.62       3.34
H      -5.66      12.24       0.66
C      -5.57      11.19       0.98
C      -3.38      11.49       2.13
N       0.12       8.77      11.99
N      -3.49       5.61       4.78
N      -4.77      11.08       2.19
O       1.51       6.10       7.75
O      -0.72       6.10       7.65
O      -1.26       9.94       8.04
