19

Zn       2.94       5.10       8.26
Zn       1.51       4.43      10.93
O       1.94       3.31      12.45
O       3.47       3.25       7.51
Zn       3.08       3.52       5.59
O       1.08       4.63       9.01
C       4.85       3.09       3.40
C       0.25       5.74      13.12
C       2.36       3.06       2.88
C       1.47       3.57      13.64
C       3.27       2.11       8.19
C       0.19       3.89       8.33
O       4.80       3.37       4.66
O       3.31       5.15      10.22
C       4.38       5.80      10.67
O       2.81       5.44       6.30
C       2.84       6.70       5.85
O       0.52       5.84      11.86
O       1.90       3.33       4.07
