32

Nd       4.27       5.86       0.00
Nd       0.01       6.32      -0.00
H       4.12       8.71       1.38
H       4.43       8.71      -1.38
H       0.16       3.47      -1.38
H      -0.14       3.48       1.38
H       2.61       8.39       0.99
H       5.94       8.39      -0.99
H       1.67       3.79      -0.99
H      -1.65       3.79       0.99
C       4.27       2.90      -0.00
C       0.01       9.29       0.00
C       2.53       5.22       2.34
C       6.01       5.21      -2.34
C       1.75       6.97      -2.34
C       6.79       6.97       2.34
O       5.33       3.53       0.33
O       3.21       3.53      -0.33
O      -1.05       8.66      -0.33
O       1.07       8.65       0.33
O       3.79       5.06       2.34
O       4.76       5.06      -2.34
O       0.50       7.12      -2.34
O      -0.47       7.12       2.34
O       1.92       5.55       1.25
O       6.62       5.55      -1.25
O       2.36       6.63      -1.25
O       6.18       6.63       1.25
O       3.47       7.99       1.28
O       5.07       7.99      -1.28
O       0.81       4.19      -1.28
O      -0.79       4.19       1.28
