17

N       8.74      20.75       9.77
Co       9.97      20.76       8.07
N      11.20      20.76       6.37
C       7.85      19.84      10.13
C       8.80      21.60      10.84
O       9.54      22.74       7.71
C      12.09      21.68       6.01
C      11.13      19.92       5.30
O       8.35      20.17       6.77
H      12.05      20.41       9.42
H      12.24      21.96       9.00
O      10.39      18.78       8.43
O      11.59      21.34       9.37
H       7.89      21.10       6.72
C      11.53      18.30       8.77
C       8.40      23.22       7.37
H       7.70      19.55       7.14
