15

Cu       7.37       7.40       5.43
Cu       7.37       5.14       7.66
Cu       5.10       7.39       7.65
N       8.65       5.09       6.33
N       8.65       6.07       5.36
N       6.04       8.68       5.37
N       5.05       8.67       6.32
N       5.07       6.07       8.94
N       6.05       5.10       8.95
C       9.55       5.74       4.42
C       9.55       4.15       5.98
C       4.12       9.57       5.97
C       5.72       9.59       4.43
C       5.74       4.19       9.88
C       4.15       5.75       9.86
