18

Al       5.56       6.10      17.13
H       3.92       7.87      17.34
Al       2.24       6.13      17.09
H       7.23       4.36      16.89
C       3.93       4.57      18.95
C       7.15       7.65      15.26
C       3.86       4.47      15.36
O       2.73       5.02      15.60
C       7.28       7.77      18.86
O       6.17       7.51      18.29
O       5.07       5.08      18.69
O       8.26       7.48      15.87
O       4.95       4.69      15.97
O       8.41       7.25      18.59
O       6.04       7.12      15.57
O       2.86       4.77      18.29
O       3.91       6.94      17.09
O       7.23       5.29      17.14
