10

O       0.97      12.07      12.19
Al      -0.07      10.46      12.08
O      -1.13      11.46      13.33
O      -1.13      11.05      10.59
O      -1.13       8.88      12.32
C      -2.03      10.34      10.03
C       1.93      12.30      13.00
C      -2.03       8.75      13.22
O       0.97       9.57      13.42
O       0.97       9.75      10.64
