66

Mg      -1.67       0.60       8.15
Mg      -3.76      -1.34       9.44
Mg       0.41       0.75      10.48
Mg      -2.48       7.50       5.88
Mg      -0.40       9.45       4.59
Mg      -4.56       7.36       3.55
P       1.55       1.15       7.46
P      -0.53      -2.21       9.31
P      -2.61       1.07      11.29
P       0.53       6.95       6.57
P      -3.63      10.31       4.73
P      -1.55       7.04       2.74
H      -0.24       0.41       5.94
H      -2.32      -3.16      10.71
H       1.84       2.76      11.42
H      -3.92       7.69       8.09
H      -1.84      11.27       3.32
H      -6.00       5.35       2.61
H      -1.74      -0.05       5.46
H      -3.82      -3.34      11.35
H       0.34       3.40      11.25
H      -2.42       8.16       8.57
H      -0.33      11.45       2.68
H      -4.50       4.70       2.78
C      -3.86       2.73       7.87
C       0.30      -2.64       7.73
C      -1.78      -0.08      12.45
C      -0.30       5.38       6.16
C      -2.38      -5.46       6.30
C       1.78       0.09      15.61
C      -2.16       2.95       6.11
C      -4.25      -4.28       8.42
C      -0.08       1.34      13.52
C      -1.99       5.16       7.92
C      -4.08      -3.82       5.61
C       0.09      -1.33      14.54
C      -1.68       3.73       8.35
C      -3.76      -2.73       6.63
C       0.40      -0.99      13.08
C      -2.47       4.37       5.68
C      -4.56      -5.37       7.40
C      -0.39       1.00      14.98
N      -2.41       2.70       7.56
N      -4.49      -2.90       7.91
N      -0.33       0.21      12.59
N      -1.75       5.40       6.47
N      -3.83      -5.20       6.12
N       0.34      -0.20      15.47
O       0.32       1.08       8.39
O      -1.77      -1.37       8.90
O       2.40       0.29      10.77
O      -4.47       7.02       5.64
O      -2.39       9.47       5.13
O      -6.55       7.81       3.26
O      -3.65       0.09       7.91
O       0.51      -1.29      10.00
O      -1.57       1.21      10.15
O      -0.50       8.02       6.12
O      -4.67       9.39       4.03
O      -2.59       6.89       3.88
O      -1.14       0.00       6.22
O      -3.22      -2.71      10.92
O       0.94       2.72      10.92
O      -3.02       8.10       7.81
O      -0.94      10.82       3.11
O      -5.10       5.38       3.11
