23

Zn       7.50       8.94      15.56
Zn       7.30      10.72      18.22
Zn       8.99      11.78      15.71
Zn       5.79      11.67      15.56
O       7.40      10.78      16.26
O       7.47       7.61      17.00
O       8.80      11.66      19.05
O      10.22      10.68      14.64
O       7.32       8.87      18.91
O       9.15       8.66      14.53
O      10.01      12.41      17.27
O       8.53      13.36      14.64
O       4.78      10.49      14.37
O       6.25      13.28      14.53
O       5.99       8.56      14.37
O       5.65      11.55      18.91
O       4.58      12.24      17.00
C       7.40       7.76      18.27
C       9.79      12.28      18.52
C      10.11       9.46      14.27
C       7.39      13.80      14.27
C       5.00       9.28      14.01
C       4.69      12.10      18.27
