24

Al       1.37       0.96       0.43
Al       4.57       0.78       0.53
Al       3.28       3.51       0.54
O       0.97       2.17      -1.08
O       2.09      -0.26      -0.98
O       4.35      -0.45      -0.85
O       5.61       1.74      -0.77
O       4.53       3.74      -0.90
O       2.03       4.14      -0.68
O       0.82       2.27       1.72
O       1.95      -0.14       1.93
O       4.19      -0.49       1.84
O       5.53       1.64       1.90
O       4.73       3.75       1.75
O       2.24       4.00       1.99
O       3.11       1.76       0.48
O      -0.21       0.18       0.39
H      -0.43      -0.25      -0.45
C       3.22      -0.54      -1.46
C       5.28       2.81      -1.37
C       1.30       3.35      -1.39
C       3.04      -0.52       2.44
C       5.28       2.80       2.40
C       1.32       3.19       2.42
