16

Zn       5.36       4.57       4.58
N       5.39       6.74       4.58
N       5.33       2.40       4.58
F       7.51       4.52       4.52
F       3.21       4.62       4.63
Si       9.27       4.57       4.58
C       4.15       4.58       1.79
C       6.48       4.57       1.67
C       6.56       4.56       7.36
C       4.23       4.57       7.48
C       4.15       1.79       4.58
C       6.48       1.67       4.57
C       6.56       7.35       4.57
C       4.23       7.47       4.58
N       5.33       4.57       2.41
N       5.39       4.57       6.74
