29

Zn      10.68      19.14      11.05
Zn       8.29      18.82       9.15
Zn       8.29      20.94      11.72
Zn       8.29      17.65      12.28
N       6.68      17.63       9.17
N       6.68      21.52      10.68
N       6.68      18.26      13.30
N       6.04      17.45      10.37
N       6.04      20.57       9.93
N       6.04      19.39      12.85
C       6.06      16.95       8.22
C       6.06      22.69      10.57
C       6.06      17.78      14.36
C       8.11      15.02      11.66
C       8.11      20.67       7.18
C       8.11      21.73      14.31
O       8.75      19.14      11.05
O      11.46      18.02       9.64
O      11.46      20.92      10.79
O      11.46      18.47      12.73
O       9.63      17.48       8.38
O       9.64      22.28      10.94
O       9.63      17.66      13.82
O       8.69      16.07      11.17
O       8.69      20.57       8.33
O       8.69      20.77      13.65
C      10.82      17.30       8.79
C      10.82      22.02      10.58
C      10.82      18.10      13.77
