18

Al       4.68       2.40       8.18
Al       8.03       2.40       8.18
H       6.35       1.21       6.87
H       3.00       3.60       9.49
O       4.17       0.54       8.15
O       1.83       2.93       6.42
O       7.43       4.20       8.54
O       5.28       2.17      10.00
O       5.18       4.26       8.21
O       7.53       1.87       9.94
C       3.04       0.01       7.97
C       2.96       2.94       5.83
C       6.32       4.80       8.39
C       6.40       1.87      10.53
O       1.93       0.61       7.82
O       4.08       2.63       6.36
O       6.35       1.92       7.52
O       3.00       2.88       8.84
