20

Zn       8.31      10.20       8.47
Zn       8.21       7.30       8.44
C       7.63       8.78       5.96
C      10.79       8.68       7.93
C       7.43       4.59       9.40
C       8.71       8.62      11.00
C       8.47       4.54       7.32
C       8.94      13.11       7.73
C       7.66      12.78       9.66
C       5.73       8.82       8.99
N       8.01       5.24       8.38
N       8.33      12.27       8.61
O       8.02       9.88       6.47
O       7.36       7.71       6.60
O      10.32       9.84       8.19
O      10.13       7.61       7.77
O       8.57       9.76      10.45
O       8.85       7.50      10.40
O       6.26       9.95       8.76
O       6.33       7.72       9.22
