16

Cu       3.04       4.05       4.25
Si      -0.82       4.05       4.25
C       1.81       3.59       6.92
C       4.28       4.51       1.58
C       1.81       6.74       3.91
C       4.28       1.36       4.58
S       4.20       4.37       7.25
S       1.89       3.74       1.24
S       4.20       7.04       4.70
S       1.89       1.06       3.79
N       2.90       3.96       6.26
N       3.18       4.14       2.24
N       2.90       6.07       4.25
N       3.18       2.04       4.24
F       0.83       3.65       3.82
F       5.25       4.46       4.67
