20

Zn       5.58       6.84       8.73
Zn       5.61       9.60       8.69
C       5.12       8.13       6.13
C       3.00       8.30       8.82
C       5.54       8.16      11.31
C       8.15       8.23       8.46
C       4.74       4.12       7.93
C       4.55      12.34       8.37
C       6.43       4.12       9.52
C       6.83      12.30       8.85
N       5.57       4.79       8.73
N       5.68      11.65       8.62
O       4.94       7.03       6.75
O       5.61       9.20       6.63
O       3.58       7.22       9.15
O       3.58       9.41       8.55
O       5.92       7.08      10.74
O       5.42       9.29      10.73
O       7.52       7.16       8.21
O       7.60       9.33       8.81
