34

Ni       5.99      13.68       4.71
O       5.83      15.14       6.13
Ni       3.58      13.68       4.71
O       5.83      12.23       6.13
H      10.57      12.80       6.73
H      10.57      14.57       6.73
H       8.19      14.57       6.69
H       8.19      12.80       6.69
H      10.60      15.76       4.66
H      10.60      11.60       4.66
H      10.62      14.88       3.13
H      10.62      12.49       3.13
H       8.26      14.89       3.09
H       8.26      12.47       3.09
H       8.23      15.77       4.63
H       8.23      11.60       4.63
C       4.67      15.45       2.87
C       4.67      11.92       2.87
C       4.67      15.49       6.49
C       4.67      11.88       6.49
C      10.20      14.88       4.15
C      10.20      12.48       4.15
C       8.65      14.89       4.12
C       8.65      12.47       4.12
C      10.17      13.68       6.22
C       8.61      13.68       6.20
N       8.12      13.68       4.80
N      10.70      13.68       4.84
O       3.57      15.02       6.03
O       3.57      12.35       6.03
O       5.83      15.12       3.24
O       5.83      12.25       3.24
O       3.56      15.00       3.37
O       3.56      12.37       3.37
