20

Er       6.34      -0.00       9.37
Er      10.00      -0.00       9.37
C       7.71      -2.44       9.16
C       7.71       1.39       7.35
C       7.71       1.05      11.58
C       4.06       2.44       9.17
C       4.06      -1.40       7.35
C       4.06      -1.05      11.58
O       8.30      -1.54       9.89
O       8.30       0.32       7.77
O       8.30       1.22      10.44
O       4.64       1.54       9.89
O       4.64      -0.32       7.77
O       4.64      -1.22      10.44
O       6.60      -2.18       8.63
O       6.60       1.73       7.84
O       6.60       0.45      11.62
O      10.25       2.18       8.63
O      10.25      -1.73       7.84
O      10.25      -0.45      11.62
