10

Al       2.91      17.62      10.21
O       1.87      16.94      11.68
O       1.87      19.23      10.07
O       1.87      16.71       8.90
O       3.97      18.22      11.68
O       3.96      16.03       9.99
O       3.96      18.60       8.96
C       0.93      19.43       9.24
C       0.93      15.88       9.13
C       0.93      17.55      12.27
