23

Zn       7.57       9.01      15.56
Zn       7.40      10.81      18.23
Zn       9.04      11.88      15.69
Zn       5.86      11.76      15.60
O       7.47      10.85      16.27
O       7.54       7.68      17.01
O       8.90      11.76      19.08
O      10.25      10.78      14.62
O       7.42       8.97      18.90
O       9.23       8.74      14.53
O      10.04      12.51      17.25
O       8.58      13.46      14.62
O       4.87      10.54      14.42
O       6.29      13.36      14.56
O       6.06       8.60      14.35
O       5.76      11.65      18.91
O       4.64      12.33      17.03
C       7.47       7.86      18.28
C       9.86      12.38      18.51
C      10.18       9.56      14.26
C       7.42      13.88      14.27
C       5.07       9.35      14.03
C       4.78      12.19      18.30
