21

Ni       5.19      -3.32       7.33
C       7.47      -2.93       9.45
C       5.97      -6.00       7.98
C       7.51      -4.93       6.31
C       7.41      -2.61       5.46
C       4.55      -5.84       8.51
C       2.92      -3.72       5.21
C       4.42      -0.64       6.68
C       2.88      -1.72       8.35
C       2.97      -4.03       9.20
C       5.84      -0.81       6.15
H       5.57      -5.52       6.05
H       4.94      -4.27       9.75
N       6.71      -2.81       8.56
N       6.12      -5.12       6.81
N       4.37      -4.43       8.91
N       3.67      -3.83       6.10
N       4.26      -1.52       7.85
N       6.02      -2.22       5.75
H       4.82      -1.12       8.61
H       5.45      -2.37       4.91
