23

Zn      29.45       7.41      16.41
Zn      28.76       4.35      15.71
Zn      29.96       4.97      18.61
Zn      31.73       5.21      15.98
O      29.63       3.09      14.49
O      31.66       4.17      19.24
O      32.92       4.92      17.50
C      27.24       6.71      14.65
C      29.45       7.86      19.32
C      31.97       7.90      14.88
C      27.59       3.28      18.23
C      30.88       2.89      14.34
C      32.78       4.34      18.63
O      29.95       5.52      16.72
O      27.56       5.47      14.66
O      27.85       7.65      15.26
O      29.66       6.63      19.62
O      29.27       8.33      18.15
O      32.43       6.71      14.95
O      30.90       8.33      15.42
O      28.43       3.79      19.05
O      27.66       3.31      16.95
O      31.82       3.59      14.86
