23

Zn      12.23      13.84       5.34
Zn      13.80      15.46       7.64
Zn      15.38      13.83       5.38
Zn      13.79      12.25       7.69
O      13.80      13.84       6.54
O      13.90      12.76       9.60
O      11.17      15.47       5.58
O      12.68      13.78       3.44
O      12.14      16.48       7.38
O      16.44      12.20       5.66
O      15.35      16.62       7.32
O      12.13      11.23       7.48
O      16.50      15.37       5.79
O      11.17      12.25       5.70
O      15.37      11.13       7.37
O      13.80      15.05       9.57
O      14.96      13.87       3.46
C      13.83      13.91      10.15
C      13.83      13.83       2.88
C      11.24      16.37       6.48
C      16.31      11.26       6.51
C      16.35      16.39       6.54
C      11.22      11.36       6.60
