22

Zn       6.60       5.50      11.84
Zn       3.74       5.50      11.81
C       5.14       8.11      11.84
C       5.20       5.49       9.24
C       5.15       2.87      11.79
C      10.72       6.67      10.98
C       9.18       6.56      10.84
C      10.69       4.26      11.23
C       9.16       4.22      11.42
C      10.73       5.67      13.19
C       9.20       5.90      13.17
C       5.18       5.42      14.40
N      11.23       5.53      11.80
N       8.66       5.56      11.82
O       6.22       7.52      12.18
O       4.05       7.55      11.53
O       6.27       5.83       9.84
O       4.09       5.21       9.80
O       6.25       3.44      11.49
O       4.05       3.44      12.04
O       6.29       5.15      13.82
O       4.09       5.72      13.81
