10

O       3.21      15.10      17.28
Al       4.32      13.99      16.16
O       3.21      14.41      14.64
O       5.45      13.30      14.79
O       3.21      12.47      16.55
O       5.45      15.53      16.24
O       5.45      13.16      17.45
C       2.21      13.80      14.15
C       2.21      15.84      17.00
C       2.21      12.35      17.34
