23

Zn      12.15      11.19       3.40
Zn      12.14       8.01       3.36
Zn      14.47       9.56       1.81
Zn      14.47       9.63       4.97
C       9.66       9.62       3.36
C      16.96       9.60       3.38
O      14.13      11.21       6.08
O      12.47      12.31       4.99
O      14.13      11.14       0.68
O      12.51      12.29       1.81
C      13.29      12.16       5.95
O      10.24      10.76       3.41
O      14.15       8.02       6.06
O      12.48       6.93       4.97
O      14.16       7.97       0.71
O      12.45       6.91       1.77
O      10.24       8.48       3.32
O      13.30       9.60       3.39
C      13.32      12.12       0.83
O      16.38       9.48       2.25
O      16.37       9.74       4.51
C      13.31       7.08       5.92
C      13.30       7.04       0.83
