10

Al       0.19      13.89       0.00
O       1.32      12.35      -0.21
O       1.32      14.83      -1.22
O       1.32      14.47       1.43
O      -0.93      12.88      -1.20
O      -0.93      13.35       1.47
O      -0.93      15.43      -0.27
C       2.33      15.60      -1.08
C       2.33      13.96       2.02
C       2.33      12.10      -0.95
