17

C      -5.38      10.23       5.47
C      -4.60      12.28       4.32
C      -4.43       8.18       4.09
Mo      -4.21      10.27       3.66
C      -2.79       9.95       5.21
C      -2.36      11.29       3.24
C      -4.62      11.37       1.86
C      -6.21       9.87       3.01
N      -4.90      11.99       0.90
N      -4.57       7.02       4.24
N      -6.06      10.25       6.43
N      -4.82      13.40       4.61
N      -2.97       8.43       1.23
N      -2.04       9.84       6.10
N      -1.35      11.86       3.09
C      -3.37       9.09       2.12
N      -7.33       9.64       2.72
