20

Zn       3.77       5.68      22.15
Zn       6.55       5.62      22.19
C       5.24       8.25      22.20
C       5.11       5.61      19.55
C       5.14       3.01      22.16
C       5.22       5.54      24.84
C      -0.41       6.27      21.30
C       0.97       4.90      23.15
C       0.97       6.30      21.37
C      -0.45       4.86      23.07
N      -1.14       5.55      22.15
N       1.71       5.64      22.27
O       4.11       7.66      22.27
O       6.38       7.67      22.15
O       6.23       5.56      20.16
O       3.97       5.75      20.08
O       6.27       3.59      22.26
O       4.02       3.64      22.04
O       4.09       5.45      24.23
O       6.34       5.66      24.26
