16

V       8.61       7.58      10.36
V       5.21       7.38      10.60
O       7.80       7.33       8.59
O       6.74       7.01      11.07
O      10.14       7.97       9.90
O       5.59       9.31      10.36
C       6.71       9.95      10.42
C       6.67       7.06       8.05
C      10.10       7.91      12.91
C      10.07       5.02      10.55
O       7.86       9.40      10.45
O       5.55       7.02       8.68
O       8.99       7.72      12.30
O       4.40       5.59      10.72
O       8.95       5.62      10.39
O       4.46       7.83      12.37
