27

Mg      -1.49       4.53       3.01
Mg      -4.94       4.10       2.50
C      -4.81       6.27       0.29
N       0.47       3.51       3.38
N      -6.48       5.45       3.45
O      -3.89       2.81       1.31
O      -1.71       3.40       1.25
O      -1.05       5.77       4.62
O      -3.41       5.47       2.91
O      -6.70       3.04       1.74
O      -0.97       5.90       1.34
O      -2.39       3.11       4.14
O      -4.64       3.21       4.32
O      -5.32       5.18       0.73
H      -3.39       6.00       3.81
H      -3.50       6.10       2.12
H      -6.66       3.49       0.87
H      -7.50       3.40       2.17
H      -1.78       6.39       1.06
H      -0.97       5.13       0.73
C      -2.71       2.72       0.85
C       0.82       2.45       2.63
C       1.06       3.62       4.58
C      -1.87       6.30       5.44
C      -3.47       3.10       4.81
C      -6.45       5.64       4.79
C      -7.29       6.27       2.75
