10

Al       4.20      35.47      12.29
C       2.05      37.35      11.57
C       2.05      35.15      14.27
C       2.05      33.91      11.02
O       3.03      34.72      10.94
O       3.03      34.68      13.61
O       3.03      37.01      12.31
O       5.32      34.02      11.74
O       5.32      36.67      11.30
O       5.32      35.73      13.82
