48

Sn       1.88       8.81       1.02
Sn       4.30       6.19       0.03
Sn       4.36       9.82      -1.02
Sn       1.94      12.44      -0.03
C      -0.20      11.10       2.02
C       2.58       9.04       3.02
C       0.57       7.54      -0.08
C       2.85       4.84       2.04
C       6.11       6.21       1.15
C       3.08       5.09      -1.32
H       3.46       8.41       3.15
H       2.84      10.10       3.16
H       1.80       8.74       3.72
H      -0.40       8.03      -0.15
H       0.99       7.38      -1.08
H       0.49       6.58       0.44
C       6.43       7.53      -2.02
H       6.70       7.08       0.85
H       6.67       5.28       0.97
H       5.83       6.27       2.20
H       2.20       4.71      -0.78
H       3.68       4.27      -1.73
H       2.77       5.77      -2.12
C       3.65       9.59      -3.02
C       5.66      11.09       0.08
C       3.39      13.79      -2.04
C       0.13      12.42      -1.15
C       3.16      13.54       1.32
O       0.65      12.04       1.90
O      -0.04       9.92       1.55
O       2.50      10.46      -0.06
O       2.85       6.10       1.70
O       5.58       6.59      -1.90
O       6.27       8.71      -1.55
O       3.73       8.17       0.06
O       3.39      12.53      -1.70
H       2.77      10.22      -3.15
H       3.40       8.53      -3.16
H       4.44       9.89      -3.72
H       6.64      10.60       0.15
H       5.25      11.25       1.08
H       5.75      12.05      -0.44
H      -0.46      11.55      -0.85
H      -0.43      13.35      -0.97
H       0.41      12.36      -2.20
H       4.03      13.92       0.78
H       2.56      14.36       1.73
H       3.47      12.86       2.12
