20

Zn       6.28       7.12       8.59
Zn       3.58       7.81       7.76
N       1.68       8.23       7.12
N       8.20       6.54       9.09
O       6.53       9.12       8.67
O       3.62       5.85       7.01
O       4.32       9.57       8.40
O       5.26       5.28       8.44
O       6.47       6.90       6.54
O       3.19       7.15       9.66
O       4.72       8.20       5.98
O       5.32       7.09      10.43
C       5.53       9.92       8.59
C       4.49       5.02       7.45
C       5.60       7.32       5.69
C       4.06       6.88      10.53
C       1.40       9.19       6.19
C       8.51       5.74      10.16
C       0.70       7.49       7.65
C       9.15       6.96       8.24
