20

Zn       3.67       5.56      11.03
Zn       6.40       5.63      11.03
C       4.97       8.22      10.98
C       4.99       5.63       8.44
C       5.14       3.00      10.97
C       5.10       5.71      13.62
C       0.83       4.60      11.77
C      -0.43       6.45      10.26
C      -0.57       4.68      11.75
C       0.96       6.37      10.30
N       1.58       5.44      11.06
N      -1.17       5.61      11.00
O       3.85       7.67      11.23
O       6.07       7.62      10.74
O       6.08       5.32       9.02
O       3.90       5.92       9.03
O       6.18       3.61      11.37
O       4.05       3.56      10.63
O       4.03       5.39      13.00
O       6.22       5.94      13.07
