14

C       4.95       5.94      14.05
O       1.86       6.91      14.82
C       1.53       5.94      14.05
Cu       3.24       6.97      12.07
O       4.62       9.38      13.39
C       4.95       9.19      12.17
Cu       3.24       8.19      14.19
O       4.59       5.80      12.82
C       1.53       9.19      12.17
O       1.89       8.21      11.43
O       4.62       6.91      14.82
O       1.89       5.80      12.82
O       1.86       9.38      13.39
O       4.59       8.21      11.43
