36

Zn       7.85       6.19      14.15
Zn      10.56       7.92      13.86
Zn      10.46       7.92      10.59
Zn       7.89       5.91      10.82
C       8.76       8.87       8.27
C       9.91       4.08       9.78
C       9.19      10.53      13.43
C       6.42       3.40      13.73
C       6.06       8.28      11.16
C      13.53       8.57      11.05
C       9.34      10.71      11.24
C       6.46       3.31      11.53
C       5.97       8.41      13.36
C      13.49       8.59      13.25
C       7.16       7.35       8.21
C      11.62       5.46       9.72
C       9.48       9.19      16.48
C       9.75       4.51      15.57
N       8.29       7.51      15.72
N       6.83       4.60      13.27
N       7.05       7.52      11.67
N      12.25       8.38      11.45
N       9.53       9.42      11.57
N       6.85       4.54      11.90
N      10.78       5.95      14.26
C       7.55       8.15      16.64
N       6.98       7.59      13.03
N      12.24       8.37      12.82
N       8.15       6.87       8.99
N      10.76       5.91      10.66
N       9.50       8.15      15.63
N       9.62       5.25      14.45
N       9.16       7.82       9.01
N       9.70       5.05      10.70
N       9.44       9.31      12.92
C      11.62       5.63      15.27
