54

Cd       3.56       5.02       1.42
N       5.93       2.19       6.40
N       1.87      -4.44       5.10
Cd       3.55      -3.73       3.64
O       3.21       3.24       5.14
Cd       4.25       1.28       5.06
O       3.21      -6.07       0.24
Cd       4.24      -5.02      -1.42
O       4.59       6.07      -0.24
O       4.59      -2.82       5.38
O       3.00       3.42       2.91
O       3.00      -4.23       1.51
Cd       4.25       3.73      -3.64
O       4.79      -3.42      -2.91
O       4.80       4.23      -1.51
O       4.80      -0.80       4.42
N       5.93      -6.64      -1.30
O       3.00       0.80      -4.42
Cd       3.55      -1.28      -5.06
N       5.93       4.44      -5.10
O       4.90       6.01       3.06
O       4.90      -5.65       3.67
O       4.90      -0.35      -6.74
O       2.90      -6.01      -3.06
O       2.90       5.65      -3.67
O       2.90       0.35       6.74
O       3.21       2.82      -5.38
O       4.58      -3.24      -5.14
C       2.69       3.76       4.10
C       2.68      -5.42       1.20
C       2.68       1.67      -5.30
C       5.11      -3.76      -4.10
C       5.11       5.42      -1.20
C       5.12      -1.67       5.30
C       5.91       5.22       2.84
C       5.90      -5.06       3.10
C       5.90      -0.15      -5.94
C       1.89      -5.22      -2.84
C       1.90       5.06      -3.10
C       1.90       0.15       5.94
C       2.23      -2.26      -7.70
C       2.23       7.80       1.89
C       2.23      -5.53       5.81
C       5.57       2.26       7.70
C       5.57      -7.80      -1.89
C       5.57       5.53      -5.81
C       0.60      -2.50      -6.09
C       0.60       6.52       0.88
C       0.60      -4.02       5.20
C       7.20       2.50       6.09
C       7.20      -6.52      -0.88
C       7.20       4.02      -5.20
N       1.87      -2.19      -6.40
N       1.87       6.64       1.30
