23

Zn      -1.42      19.96      18.57
Zn      -3.62      17.77      17.68
C      -2.76      21.73      20.53
Zn      -1.32      16.97      19.74
C      -2.34      15.11      17.68
Zn      -3.64      18.92      20.68
C      -2.45      16.89      22.46
C      -2.70      19.95      15.90
O      -1.89      20.48      16.72
O      -3.32      18.83      16.05
O      -5.53      17.88      18.10
C      -6.12      18.35      19.13
O      -5.54      18.77      20.19
O      -3.21      15.91      17.19
O      -1.57      15.34      18.67
O       0.51      19.61      18.69
O       0.55      17.50      19.55
O      -1.59      16.46      21.60
O      -3.32      17.80      22.25
O      -3.35      20.80      21.18
O      -1.91      21.57      19.60
O      -2.50      18.42      19.15
C       1.11      18.56      19.11
