24

Al      10.94       6.78      14.08
Al       7.74       6.60      14.13
Al       9.29       4.03      14.15
O      11.57       5.51      12.66
O      10.10       7.93      12.65
O       6.84       5.65      15.51
O       7.83       7.89      12.79
O       6.76       5.57      12.88
O       7.94       3.62      12.88
O      10.51       3.50      12.85
O      11.61       5.62      15.51
O      10.21       7.88      15.54
O       7.93       7.92      15.43
O       8.00       3.69      15.51
O      10.52       3.62      15.48
O       9.31       5.80      14.10
O      12.43       7.70      14.04
H      12.71       8.01      13.18
C       8.95       8.23      12.24
C       7.07       4.43      12.40
C      11.33       4.32      12.29
C       9.07       8.15      16.01
C       7.20       4.54      16.04
C      11.29       4.50      16.01
