20

Zn       4.71       5.59       7.54
O       6.76       8.25       8.03
O       6.70       6.09       7.35
Zn       4.69       8.52       7.62
C       5.09       7.11       5.02
C       2.15       7.03       7.69
C       3.82      11.39       6.93
C       3.80       2.66       7.28
C       5.67      11.21       8.31
C       6.01       3.01       7.92
C       4.73       6.96      10.15
C       7.30       7.14       7.76
N       4.70      10.61       7.59
N       4.82       3.52       7.51
O       4.62       6.03       5.52
O       5.18       8.20       5.67
O       2.74       5.93       7.88
O       2.68       8.15       7.40
O       5.04       5.87       9.57
O       4.42       8.06       9.60
