23

Zn       9.87       9.43      10.36
Zn       9.25       6.88       8.40
Zn       7.44       9.41       8.33
Zn       7.44       7.55      11.03
C       8.26       4.84      10.34
C       8.81      11.86       9.16
C      11.95       8.04       8.79
C       5.02       8.85       9.94
C       7.80       7.63       5.99
C       9.19       8.73      13.11
O       8.50       8.29       9.55
O       8.49       6.74       6.59
O       8.09       8.17      12.81
O       7.45       8.76       6.49
O      10.07       9.18      12.31
O      11.61       8.97       9.60
O       5.62       8.32      10.94
O       8.89       5.17       9.28
O       8.15      11.23       8.26
O       7.58       5.61      11.10
O       9.40      11.33      10.17
O      11.19       7.20       8.22
O       5.54       9.28       8.86
