15

Cu       7.43      26.58      29.51
Cu       7.44      28.83      27.27
C       9.58      28.27      30.54
Cu       5.18      26.59      27.29
C       9.60      29.84      28.97
C       4.20      24.38      28.95
C       5.81      24.36      30.48
C       5.81      29.77      25.03
C       4.21      28.23      25.08
N       8.70      28.90      28.62
N       8.69      27.93      29.59
N       6.12      25.28      29.56
N       5.13      25.29      28.60
N       5.13      27.91      26.00
N       6.13      28.86      25.98
