23

Zn      12.92      14.19      10.11
Zn      13.09      12.42       7.42
Zn      11.43      15.18       7.44
Zn      14.61      15.21       7.56
C      13.04      11.23      10.14
C      10.60      12.77       5.90
C      10.31      15.56      10.15
C      13.07      17.26       6.11
C      15.42      15.75      10.37
C      15.69      12.87       6.10
O      13.01      14.24       8.15
O      12.96      12.34      10.78
O      11.55      12.01       6.26
O      10.22      15.71       8.88
O      13.12      11.08       8.87
O      11.27      15.00      10.79
O      10.42      13.98       6.25
O      11.93      16.75       6.40
O      15.61      15.87       9.12
O      14.22      16.79       6.47
O      14.45      15.13      10.93
O      14.70      12.07       6.35
O      15.80      14.08       6.50
