18

Al       6.70       6.11       8.62
O       6.16       5.04       7.13
Al       3.35       6.11       8.62
O       7.24       7.47       7.38
O       2.81       7.18      10.12
O       3.89       4.75       9.87
C       8.37       7.47      10.63
O       5.02       6.92       8.71
O       8.37       5.30       8.54
C       5.02       4.42      10.34
C       5.02       4.75       6.62
H       5.02       7.86       8.95
C       8.37       7.81       6.91
H       8.37       4.37       8.30
O       7.24       7.18      10.12
O       6.16       4.75       9.87
O       3.89       5.04       7.13
O       9.50       7.47       7.38
