23

Zn       1.69      15.09       0.74
Zn       0.27      17.97       0.63
Zn      -1.47      15.25       0.67
Zn       0.16      16.12      -1.93
O       0.17      16.11       0.01
O       0.43      17.90      -2.69
O       1.07      13.73       1.98
O       2.04      18.37       1.38
C       0.28      19.03      -2.13
C      -0.10      13.42       2.45
C       2.93      17.55       1.81
C      -2.21      14.43      -2.09
C      -2.29      17.70       1.98
C       2.56      14.29      -1.97
O      -2.25      14.20      -0.83
O      -1.14      18.31       1.97
O       1.71      15.07      -2.57
O      -2.62      16.74       1.21
O       2.75      14.25      -0.72
O       2.92      16.28       1.69
O      -1.45      15.27      -2.68
O       0.10      19.25      -0.88
O      -1.20      14.02       2.14
