18

Zn       7.63       5.95       6.85
Zn       4.91       5.95       6.80
N      13.41       5.95       6.68
O       7.39       7.98       7.06
N       9.73       5.95       6.96
O       5.15       3.92       7.03
O       5.15       7.98       6.59
O       7.39       3.92       6.62
O       7.53       6.15       4.82
O       5.01       6.15       8.83
O       5.29       5.72       4.81
O       7.25       5.72       8.84
C       6.27       8.55       6.82
C      12.25       5.96       6.77
C      10.89       5.96       6.88
C       6.27       3.35       6.82
C       6.42       5.91       4.24
C       6.12       5.91       9.41
