21

C       6.56      12.31      42.16
Cd       7.98      11.38      39.54
Cd       5.14      13.24      39.54
C      10.93      12.31      40.89
Cd      10.93      12.31      38.07
O       7.12      11.32      41.58
O       5.99      13.30      41.58
O       8.67      12.44      37.33
O       7.34      13.55      38.74
O       9.86      12.59      40.25
C       7.94      13.47      37.61
O      11.14      14.46      37.72
O       4.22      15.13      38.92
O      13.20      12.18      37.33
O       5.78      11.07      38.74
O       3.26      12.04      40.25
O       8.90       9.49      38.92
O      10.73      10.16      37.72
C       3.26      15.32      38.09
C       5.18      11.16      37.61
C       9.86       9.30      38.09
