66

Zr      15.54       2.18      24.70
Zr      15.52      -2.27      26.74
Zr      12.97      -0.11      25.56
Zr      18.11      -0.00      25.89
Zr      15.40       1.04      28.04
Zr      15.70      -1.13      23.46
H      17.39       2.61      26.80
H      13.51      -1.06      28.40
H      17.65      -2.64      24.89
H      13.70       0.78      22.95
H      13.18       2.56      28.75
H      11.28      -0.31      23.45
H      13.73      -2.70      22.35
H      17.31       1.15      29.90
H      19.81       1.58      27.21
H      19.97      -0.11      24.02
H      18.50      -1.23      23.23
H      14.56       0.41      30.49
H      16.19      -3.74      28.92
H      14.99       2.86      21.99
H      15.18      -0.28      20.94
H      18.25       1.25      28.53
H      14.60      -3.84      28.76
H      11.07      -0.08      27.43
H      12.50       1.25      28.08
H      17.70      -0.98      21.79
H      12.90      -1.42      22.95
H      15.81       1.45      21.96
O      15.75       2.40      22.38
O      15.36       4.03      25.97
O      13.65       3.23      24.04
O      19.06       1.80      24.95
O      12.02       1.74      24.57
O      17.48       3.29      24.28
O      15.19       3.28      28.10
O      14.39       1.30      26.16
O      16.86       1.85      26.50
O      14.24       0.56      23.72
O      16.65       0.47      24.38
O      19.34      -0.78      24.34
O      13.21       1.59      28.76
O      16.53      -0.56      27.23
O      14.10      -0.79      27.68
O      14.51      -1.48      25.18
O      17.05      -1.91      25.11
O      11.64       0.60      27.03
O      12.00      -2.00      26.35
O      13.55      -3.45      27.15
O      15.87      -0.06      21.58
O      15.59      -4.13      25.48
O      11.92      -0.91      23.87
O      13.74      -1.73      22.36
O      17.74      -1.57      22.56
O      15.56      -3.38      23.34
O      15.35      -3.22      28.92
O      19.27       0.81      27.45
O      17.41      -3.33      27.45
O      19.02      -1.79      26.98
O      17.43       1.61      29.04
O      15.40       0.51      30.01
C      15.27       4.21      27.22
C      18.69       2.91      24.43
C      12.43       2.84      24.09
C      12.34      -3.09      26.91
C      15.57      -4.31      24.22
C      18.63      -2.89      27.45
