19

Fe      -2.97       3.99       6.91
N      -5.06       3.19       8.97
N      -0.88       4.79       4.85
N      -4.03       3.63       5.26
N      -1.90       4.35       8.57
N      -2.30       2.12       6.90
N      -3.63       5.85       6.93
C      -5.55       2.89       6.87
C      -0.39       5.09       6.95
C      -5.26       3.06       5.47
C      -0.67       4.91       8.35
C      -3.68       3.90       3.98
C      -2.25       4.08       9.84
C      -2.64       1.22       7.86
C      -3.30       6.75       5.97
C      -1.40       1.73       5.96
C      -4.53       6.25       7.86
N      -4.60       3.38       7.72
N      -1.33       4.60       6.10
