13

C       1.94      10.31       6.03
C       3.03      10.29      11.17
N       0.12       9.28       9.29
C       3.37      11.26       7.37
C       4.36       8.69      10.53
C       2.02       5.91       8.75
C      -0.50       8.69      10.33
Zn       1.99       8.91       8.68
N       2.24       7.03       8.04
N       2.47      10.22       7.27
C       2.63       6.60       6.78
C      -0.71      10.30       8.88
N       3.17       9.26      10.25
