20

Zn       5.48       8.65       9.01
Zn       8.40       8.70       9.02
C       6.99       6.08       9.16
C       7.11       8.50       6.36
C       6.89      11.28       8.87
C       6.78       8.85      11.68
C      11.17       8.17       8.30
C      11.05       9.37      10.29
C       2.71       9.18       9.72
C       2.83       7.97       7.73
N      10.42       8.75       9.27
N       3.46       8.60       8.75
O       5.82       6.64       9.20
O       8.08       6.73       9.13
O       8.22       8.63       6.95
O       5.98       8.36       6.94
O       8.06      10.72       8.92
O       5.80      10.62       8.81
O       5.66       8.82      11.08
O       7.92       8.88      11.11
