36

Zn       4.58       6.53       8.73
Zn       1.92       2.77       8.49
Zn       2.13       5.31      10.56
Zn       4.49       3.89       6.81
C       2.88       7.61       6.43
C       7.49       6.61       7.64
C      -0.01       4.57       7.19
C       5.87       1.79       8.50
C       1.84       8.36      11.16
C       4.44       4.36      12.13
C       3.38       1.83       4.75
C       1.64       1.02       5.91
N       5.01       5.22      10.19
N       3.77       2.21       9.07
N       1.15       3.61      11.20
N       6.18       5.10       6.71
N       0.84       2.66      10.25
N       6.23       6.14       7.60
N       4.85       2.67       8.36
N       3.99       4.68      10.90
N       1.07       4.54       7.99
N       3.32       6.57       7.18
N       2.60       7.32      10.76
N       3.26       2.53       5.90
N       2.19       2.04       6.61
N       3.58       7.81       9.93
N       3.31       5.46       6.40
N       0.84       5.39       9.04
C       6.11       5.24      10.97
C       3.41       9.14       9.81
C       2.87       5.78       5.18
C       4.10       1.05       9.67
C      -0.39       5.91       8.94
C       0.42       3.36      12.29
C       7.41       4.94       6.19
C      -0.08       1.83      10.79
