13

Zn       4.72      23.66       4.36
N       5.33      22.13       3.23
C       4.87      21.80       2.01
C       5.86      25.17       6.72
C       6.15      21.09       3.61
C       2.12      22.14       4.74
N       6.03      24.20       5.76
N       4.34      25.30       3.28
C       7.25      23.68       5.99
C       4.78      25.64       2.05
C       3.71      26.43       3.77
C       2.39      23.66       6.27
N       3.00      23.09       5.21
