23

Zn      16.02      16.24      22.35
Zn      17.54      15.34      24.98
Zn      15.70      18.02      25.04
Zn      14.30      15.28      24.92
C      18.63      14.90      22.29
C      18.19      17.69      26.64
C      15.87      19.19      22.37
C      13.12      17.54      26.36
C      13.47      14.82      22.11
C      15.91      13.26      26.28
O      15.91      16.22      24.32
O      17.68      15.49      21.67
O      18.61      16.68      26.00
O      15.89      19.35      23.64
O      18.73      14.74      23.55
O      15.82      18.08      21.73
O      16.98      18.12      26.60
O      14.06      18.36      26.07
O      13.11      15.15      23.30
O      13.05      16.31      26.02
O      14.60      15.07      21.60
O      17.04      13.83      26.11
O      14.77      13.64      25.84
