14

O      -2.99      11.28       0.93
Zn      -1.89      10.15      -0.18
Zn      -3.08       7.78      -0.22
O      -1.18       8.93       1.38
O      -0.38       9.83      -1.36
O      -4.09       9.30       1.02
O      -4.50       8.02      -1.51
C      -4.33       9.22      -1.99
C      -1.23       7.68       1.66
C      -0.44       8.60      -1.78
C      -3.98      10.53       1.33
O      -3.29       9.92      -1.74
O      -2.16       6.88       1.22
O      -1.33       7.77      -1.39
