23

C     -16.00      10.00      13.62
Zn     -13.69       6.41      10.88
Zn     -15.22       9.31      10.87
Zn     -12.06       9.18      10.84
Zn     -13.54       8.33      13.44
C     -13.54      11.11       9.24
C     -11.11       9.94      13.48
O     -16.28       8.17       9.66
O     -15.32       6.10       9.80
O     -13.77       6.55      14.20
O     -13.69       5.15      12.40
O     -10.78       7.82      10.28
O     -12.09       6.02       9.79
O     -14.93       9.52      14.15
O     -16.30       9.98      12.38
O     -12.47      10.43       9.39
O     -14.67      10.87       9.79
O     -11.20      10.26      12.25
O     -11.84       9.08      14.08
O     -13.67       8.28      11.49
C     -16.20       6.93       9.37
C     -13.75       5.39      13.65
C     -11.00       6.70       9.71
