14

C      -1.63      -2.32       7.74
O      -2.79      -2.22       7.21
O      -1.14      -3.37       8.28
O      -5.09      -3.42       8.38
Zn      -3.85      -3.90       6.85
Zn      -2.38      -4.93       8.65
O      -1.54      -5.94       7.11
O      -3.44      -3.76       9.92
C      -4.60      -3.35       9.57
O      -2.41      -4.51       5.56
O      -4.70      -5.74       6.75
O      -3.82      -6.35       8.76
C      -4.60      -6.52       7.76
C      -1.64      -5.47       5.93
