10

Cd      10.58      14.76       4.95
C      11.56      12.54       6.74
C       8.39      16.85       4.33
C      10.04      13.08       2.86
C      12.36      16.54       5.89
O      10.31      14.34       2.76
O       8.37      15.80       4.96
O      10.54      13.22       6.81
O      11.27      16.32       6.53
O      12.64      15.98       4.78
