23

Zn      18.37       7.24       8.78
Zn      16.82       4.43       8.68
Zn      18.51       5.35       6.14
Zn      20.05       4.55       8.84
C      15.81       6.78      10.15
C      15.96       3.85       5.95
C      18.45       8.28       6.03
O      18.43       5.40       8.11
O      16.69       7.61       9.72
C      20.75       6.88      10.49
O      15.63       3.92       7.18
O      15.75       5.53       9.91
O      18.59       8.51       7.28
C      18.49       2.31       9.91
O      18.24       7.16       5.47
O      17.08       4.20       5.45
O      20.15       4.48       5.48
O      19.80       7.63      10.08
O      17.33       2.78       9.62
O      20.95       5.67      10.17
O      21.39       4.37       7.39
O      19.62       2.81       9.62
C      21.19       4.17       6.16
