23

Zn      -4.53       8.00       9.44
Zn      -6.06       7.11      12.02
O      -1.66       6.75      10.55
Zn      -4.37       9.91      12.03
O      -2.78      10.37      13.07
Zn      -2.82       7.20      12.09
O      -6.99       6.20      10.55
O      -6.25       7.39       8.77
O      -3.25       5.65      13.22
O      -1.72       8.36      13.24
C      -6.87       9.58      13.53
C      -4.40      10.93       9.27
C      -1.99       6.54       9.33
C      -4.39       5.17      13.54
C      -1.85       9.60      13.50
C      -7.04       6.55       9.32
O      -4.44       8.06      11.41
O      -7.07       8.37      13.19
O      -4.20       9.81       8.71
O      -3.12       6.77       8.79
O      -5.53       5.60      13.17
O      -4.50      11.16      10.52
O      -5.88      10.32      13.21
