23

Zn       3.89       7.91       8.68
Zn       5.08       5.05       9.22
Zn       3.10       6.42      11.42
Zn       1.91       5.32       8.73
O       3.50       6.18       9.51
O       5.71       8.05       7.97
O       5.98       4.82      10.98
O       3.42       8.27      11.94
O       6.46       5.90       8.11
O       3.57       9.36       9.94
O       4.25       5.15      12.43
O       1.28       5.90      11.92
O       1.02       6.67       7.57
O       0.54       4.85      10.04
O       2.74       8.07       7.06
O       4.57       3.35       8.43
O       2.43       3.73       7.73
C       6.57       7.12       7.76
C       5.42       4.76      12.12
C       3.50       9.32      11.22
C       0.42       5.23      11.25
C       1.58       7.59       6.90
C       3.50       3.03       7.80
