24

Al      16.02       9.05      14.10
Al      14.12       6.47      14.11
Al      12.82       9.16      14.09
O      12.79       6.22      12.75
O      16.45       7.81      12.55
O      13.08      10.36      12.69
O      15.36      10.28      12.68
O      15.29       5.86      12.80
O      11.74       8.24      12.84
O      16.56       7.81      15.50
O      12.75       6.21      15.38
O      13.10      10.51      15.32
O      15.36      10.25      15.51
O      15.27       5.94      15.48
O      11.84       8.29      15.46
O      14.31       8.22      14.08
O      17.63       9.76      14.08
H      17.86      10.23      13.27
C      14.24      10.58      12.17
C      16.04       6.69      12.15
C      12.00       7.11      12.29
C      14.24      10.69      15.90
C      16.13       6.74      16.01
C      12.00       7.11      15.91
