20

Co      13.95       3.87      14.19
C      14.00       1.10      15.93
C      11.94       5.91      14.78
C      15.74       6.05      14.63
Co      13.73       5.46      12.60
C      13.68       7.20       9.82
N      13.79       2.41      15.77
N      13.88       7.05      11.14
N      13.15       2.83      16.89
N      14.52       8.16      11.56
O      12.58       4.93      15.31
O      15.10       6.58      13.65
O      12.23       6.38      13.63
O      15.45       4.91      15.11
O      12.38       4.40      11.59
O      15.30       2.87      13.12
O      12.44       2.87      13.25
O      15.24       4.52      11.60
C      11.99       3.30      12.13
C      15.68       3.41      12.03
