18

C       4.09       1.91       1.51
C       4.07       1.31      -2.05
Al       2.42      -0.01       0.01
Al       5.75       0.02      -0.04
C       0.74      -1.88      -1.54
C       0.74      -1.27       2.04
O       5.21       1.02      -1.57
O       2.94       1.48       1.16
O       1.89      -0.98       1.56
O       2.95       0.98      -1.53
O       1.88      -1.48      -1.14
O       5.23       1.49       1.14
O       4.09      -0.78       0.16
O       6.26      -1.43      -1.21
O       6.30      -0.99       1.50
O       0.75       0.80      -0.16
H       4.11      -1.56       0.73
H       0.77       1.69      -0.52
