18

Al       6.05       5.44       8.38
Al       2.73       5.35       8.39
H       4.33       6.96       7.67
H       7.68       4.64       9.96
O       4.38       6.01       7.83
O       7.69       4.86       9.01
O       6.54       7.30       8.54
O       2.24       5.04       6.57
O       3.31       3.55       8.47
O       5.50       5.47      10.26
O       5.55       3.61       8.21
O       3.23       5.59      10.26
O       2.16       7.21       8.27
C       7.69       7.84       8.42
C       4.45       2.99       8.34
C       4.36       5.57      10.84
C       7.75       5.22       5.98
O       6.64       5.44       6.56
