54

Zr      12.64      30.85      15.38
Zr       9.10      34.39      15.38
Zr      10.87      32.62      12.87
Zr      10.87      32.62      17.88
O      10.87      30.63      16.79
O      12.87      32.62      13.97
Zr       9.10      30.85      15.38
O      12.34      32.62      16.41
Zr      12.64      34.39      15.38
O      10.87      31.16      14.34
C      15.36      32.62      15.43
H      10.87      29.84      17.35
H      13.66      32.62      13.41
C      10.87      28.13      15.32
C      13.08      30.34      12.20
C      13.16      30.42      18.55
H       8.09      32.62      13.41
C       8.67      34.91      12.20
C      13.08      34.91      12.20
C       8.67      30.34      12.20
O       8.88      32.62      13.97
C       6.38      32.62      15.43
C       8.59      34.83      18.55
C       8.59      30.42      18.55
C      13.16      34.83      18.55
O      10.87      34.62      16.79
O      12.01      36.53      15.32
O      10.87      34.09      14.34
H      10.87      35.41      17.35
O       9.41      32.62      16.41
O       6.97      31.49      15.43
C      10.87      37.11      15.32
O      14.78      31.49      15.43
O       9.74      36.53      15.32
O       6.97      33.76      15.43
O      12.00      28.72      15.32
O      12.22      31.20      11.81
O      12.30      31.27      18.94
O       9.45      33.97      18.94
O       9.52      34.05      11.81
O      13.35      35.18      13.42
O       8.39      30.06      13.42
O       8.31      30.14      17.34
O      13.43      35.10      17.34
O       9.52      31.20      11.81
O       9.45      31.27      18.94
O      12.30      33.97      18.94
O      12.22      34.05      11.81
O      13.35      30.06      13.42
O       8.39      35.18      13.42
O       8.31      35.10      17.34
O      13.43      30.14      17.34
O       9.74      28.72      15.32
O      14.78      33.76      15.43
