23

O      -6.14      21.54       9.23
O     -10.02      18.80       9.23
O      -8.32      24.47       6.78
Zn      -8.92      21.35       5.55
Zn     -10.47      20.36       8.16
Zn      -8.81      23.14       8.19
Zn      -7.29      20.35       8.17
O      -8.87      21.32       7.52
O      -7.74      18.79       9.26
O      -9.16      23.25       5.05
O     -11.59      19.72       6.69
C      -8.89      18.32       9.57
C      -8.70      24.32       5.55
C     -11.45      19.86       5.43
C      -6.38      22.70       9.72
C     -11.40      22.86       9.50
C      -6.39      19.88       5.38
O      -7.45      23.37       9.58
O     -11.40      21.60       9.37
O      -6.24      19.73       6.64
O     -10.58      23.68       8.92
O      -7.30      20.57       4.80
O     -10.50      20.46       4.82
