18

Al       3.99       5.78       8.72
Al       7.30       5.78       8.72
H       5.65       6.42      10.35
H       2.32       5.15       7.10
O       3.51       7.65       8.66
O       1.16       5.27      10.52
C       2.38       8.19       8.87
C       2.27       5.44      11.11
C       5.59       3.37       8.57
C       5.71       6.13       6.33
O       6.69       4.00       8.37
O       4.59       5.90       6.89
O       4.46       3.91       8.79
O       6.81       6.30       6.93
O       1.28       7.57       9.08
O       3.39       5.66      10.55
O       5.64       6.28       9.39
O       2.33       5.29       8.06
