54

Zr      -1.78      15.51       1.45
Zr       1.76      17.55      -1.44
Zr      -1.77      17.55      -1.44
Zr       1.76      15.51       1.45
Zr      -0.01      14.49      -1.44
Zr      -0.01      18.57       1.45
H      -2.80      14.93      -1.13
H       2.78      14.93      -1.12
H      -0.01      19.74      -1.13
H      -0.01      16.53       3.41
O      -2.46      13.43       0.98
O       2.45      16.41      -3.24
O       2.56      19.56      -0.86
O      -2.58      16.73       3.14
O      -3.92      17.25      -0.86
O       1.11      14.19       3.13
O       3.90      15.96       0.98
O      -1.12      18.70      -3.25
O      -1.33      14.47      -3.24
O      -1.48      20.19       0.98
O       1.47      18.67       3.13
O       1.31      12.78      -0.85
O      -2.53      19.59      -0.95
O       2.52      16.65       3.20
O       2.53      13.47       0.94
O      -2.55      16.39      -3.19
O      -3.92      15.91       0.97
O       1.15      18.79      -3.19
O       3.91      17.23      -0.91
O      -1.17      14.27       3.20
O      -1.37      18.66       3.21
O      -1.39      12.82      -0.94
O       1.37      14.40      -3.18
O       1.36      20.26       0.94
O      -0.01      16.53       2.44
O      -0.01      18.83      -0.81
C      -2.23      12.63       0.01
O      -2.00      15.38      -0.80
O      -0.01      16.53      -1.79
O      -0.01      14.84       0.60
C      -2.25      17.85       3.67
O      -1.47      17.38       0.60
C      -4.51      16.59       0.06
C      -0.03      13.92       3.66
C       0.01      19.10      -3.68
C      -2.28      20.40       0.01
C      -2.24      15.25      -3.68
O       1.46      17.38       0.61
C       4.49      16.61       0.04
C       2.27      17.83       3.65
C       2.23      12.63       0.03
O       1.99      15.38      -0.81
C       2.21      15.23      -3.68
C       2.24      20.42       0.03
