20

Zn       6.14       6.76       5.22
Zn       6.06       4.02       5.55
C       5.68       5.15       2.84
C       6.53       5.63       7.93
C       8.69       5.15       5.11
C       3.51       5.63       5.66
C       6.19      10.88       6.41
C       7.17       9.51       4.36
C       5.91       9.52       6.28
C       7.46      10.87       4.50
N       6.42       8.85       5.23
N       6.95      11.54       5.54
O       5.76       6.33       3.30
O       6.44       4.45       7.47
O       5.86       4.07       3.50
O       6.35       6.71       7.27
O       8.14       6.29       5.02
O       4.07       4.49       5.76
O       8.13       4.02       5.23
O       4.08       6.76       5.54
