18

Al       6.13       7.07       8.68
Al       2.80       7.07       8.68
H       4.47       8.23       7.33
H       7.80       5.91      10.03
O       6.62       8.93       8.66
O       8.98       6.46       6.91
O       3.42       5.30       9.10
O       5.52       7.27      10.49
C       7.76       9.47       8.45
C       7.85       6.57       6.32
C       4.51       4.67       8.91
C       4.41       7.57      11.04
O       5.64       5.21       8.70
O       3.29       7.67      10.45
O       8.85       8.83       8.25
O       6.74       6.87       6.87
O       4.47       7.54       8.00
O       7.80       6.60       9.35
