14

Zn       3.11       3.46       7.64
Zn       4.71       5.54       7.76
O       3.54       6.09       6.16
O       4.55       2.69       8.79
O       2.28       4.46       9.23
O       5.83       4.35       6.61
O       1.92       4.51       6.33
O       5.42       4.66       9.44
O       3.39       6.42       9.06
O       4.15       3.00       5.95
C       2.49       5.50       5.75
C       5.29       3.39       9.54
C       2.58       5.62       9.64
C       5.34       3.46       5.86
