15

Cu       5.08      16.00       2.88
Cu       2.78      16.09       5.06
Cu       5.18      18.20       5.17
N       2.71      14.81       3.73
N       3.73      14.76       2.80
N       6.40      17.29       2.84
N       6.46      18.23       3.84
N       3.84      18.28       6.44
N       2.79      17.39       6.36
C       3.42      13.81       1.89
C       1.78      13.90       3.39
C       7.40      19.14       3.51
C       7.30      17.62       1.90
C       1.87      17.76       7.27
C       3.56      19.18       7.40
