70

Tm      -3.95      13.39      15.16
O      -3.37      18.33      11.87
Tm      -2.46       8.16      15.21
O      -4.21       8.31      16.75
C      -1.73      11.29      16.43
Tm      -5.77      22.51      14.02
Tm      -4.25      17.35      13.97
H      -6.45      12.99      17.46
H      -4.29       7.68      20.46
H      -5.96       8.25      20.67
C      -3.63      16.21      17.00
H      -5.65       6.55      20.27
H      -3.31       8.02      18.57
C      -4.90      10.23      14.31
H      -7.35       8.60      18.58
H      -6.55       8.28      17.00
H      -7.12       6.92      18.03
C       0.72       7.70      14.22
C      -3.59       4.88      15.01
C      -3.26      20.52      14.87
C      -0.66       6.32      17.05
C      -2.22       6.70      12.14
C      -6.82      12.64      19.97
C      -4.46      11.84      19.97
H      -3.92      23.30      12.15
N      -5.60      12.35      19.22
N      -5.37       7.91      18.68
H      -4.48      22.01      11.42
O      -2.33      14.82      14.52
H      -3.37      17.45      11.44
O      -1.96      16.93      13.88
H      -2.44      18.50      12.11
O      -6.22      13.89      15.32
H      -7.20      11.74      20.47
O      -5.88      15.95      14.50
H      -6.63      13.41      20.73
O      -4.34      13.73      12.94
H      -7.59      13.01      19.28
O      -4.18      15.87      12.25
O      -6.22      20.70      12.78
H      -4.22      12.53      20.79
O      -6.00      18.53      13.32
H      -4.70      10.86      20.40
H      -3.60      11.75      19.29
O      -2.15      12.18      15.63
C      -5.53      12.57      17.90
C      -1.54      15.78      14.24
O      -3.93      17.12      16.15
O      -1.87      10.04      16.27
O      -3.80      14.97      16.84
C      -5.32       7.58      20.09
O      -4.85      11.48      14.49
C      -4.24       8.09      17.98
O      -3.89       9.47      14.17
O       0.65       6.53      13.71
O      -0.24       8.30      14.79
O      -3.48       6.14      15.13
C      -6.67       7.93      18.03
C      -6.65      15.00      14.86
O      -2.62       4.08      14.79
O      -3.36      19.31      14.53
O      -4.26      21.29      15.07
C      -4.33      14.62      12.04
O      -1.48       7.29      17.20
O      -0.62       5.61      15.99
O      -2.28       7.59      13.05
O      -1.70       5.55      12.30
O      -4.52      12.35      17.20
C      -6.30      19.47      12.51
O      -4.07      22.34      12.25
