20

Zn      10.87       9.32       9.54
Zn       8.10       9.33       9.75
C       9.58       6.72       9.95
C       9.38      11.93       9.35
C       5.31       9.99       9.04
C      13.66       8.66      10.26
C       9.67       9.57      12.26
C       9.30       9.08       7.04
C       5.43       8.42      10.74
C      13.53      10.23       8.56
N       6.05       9.23       9.86
N      12.91       9.42       9.44
O      10.72       7.28       9.77
O       8.25      11.37       9.53
O       8.46       7.31      10.01
O      10.50      11.33       9.28
O      10.76       9.52      11.60
O       8.21       9.13       7.69
O       8.49       9.54      11.77
O      10.47       9.10       7.53
