23

Zn       1.62       9.25       1.16
Zn      -0.09       7.70      -1.02
Zn      -0.03      10.88      -0.98
O       2.74      10.82       0.75
Zn      -1.62       9.33       1.34
O       1.56       6.65      -0.84
O      -0.20       8.15      -2.93
O       1.55      12.02      -0.76
O       1.24       9.30       3.08
O      -1.57       6.53      -0.54
O      -1.59      11.99      -0.58
O      -0.10      10.43      -2.89
O      -2.74      10.93       1.06
O      -1.05       9.29       3.23
O      -2.75       7.75       0.98
C       2.55       6.74      -0.04
C      -0.17       9.30      -3.49
C       2.56      11.82      -0.01
C      -2.57      11.88       0.22
C       0.13       9.30       3.73
C      -2.58       6.74       0.23
O      -0.05       9.28       0.14
O       2.74       7.68       0.81
