18

Mg       4.45      18.97      10.33
Mg       6.71      17.37       9.45
Mg       2.18      17.41      11.27
C       4.78      18.46       7.34
O       1.31      17.34       7.99
O       3.58      16.17      12.03
O       5.84      20.25      11.02
O       2.89      17.95       9.44
O       5.15      17.12      10.77
O       7.42      18.69      10.83
O       5.35      18.57       8.56
O       0.81      16.04      10.69
O       3.08      19.15      11.80
C       0.25      15.05      11.39
C       2.52      20.25      12.32
C       2.49      17.76       8.23
C       4.76      16.16      11.55
C       7.02      19.84      11.27
