15

C      12.80      20.28       2.81
C      12.51      20.92       4.91
C      17.53      15.34       3.35
C      16.18      16.05       1.75
Cu      14.69      18.08       3.26
Cu      14.49      19.23       6.21
Cu      16.77      17.20       5.48
C      17.96      18.54       7.80
C      16.20      19.69       8.48
N      13.34      19.86       4.91
N      13.52      19.46       3.61
N      15.88      16.72       2.89
N      16.73      16.28       3.88
N      16.91      18.18       7.04
N      15.81      18.90       7.46
