20

Zn       5.59       5.45       7.67
Zn       5.42       8.25       7.65
C       5.27       6.69      10.27
C       5.63       7.11       5.08
C       5.67      11.13       8.54
C       5.50       2.58       6.61
C       3.86      10.74       7.19
C       6.19       2.77       8.79
C       8.10       7.04       7.84
C       2.93       6.55       7.43
N       4.94      10.27       7.86
N       5.79       3.36       7.64
O       5.37       5.53       9.74
O       5.50       8.27       5.58
O       5.26       7.80       9.65
O       5.79       6.02       5.73
O       7.59       5.89       8.05
O       3.45       7.71       7.36
O       7.46       8.12       7.64
O       3.54       5.45       7.57
