12

Cu       4.17      -2.78       9.37
C       1.33      -2.66       9.48
O       5.80      -3.25       8.32
C       5.77      -3.74       7.14
C       3.53      -5.58       9.32
C       3.57      -0.82       7.31
C       5.66      -2.86      12.14
N       5.28      -2.06      11.14
O       4.07      -4.67      10.03
C       5.70      -0.78      11.14
O       4.11      -0.98       8.45
O       2.38      -2.41      10.16
