18

Al       0.07      15.38      17.70
Al       3.43      15.38      17.72
C      -1.62      13.79      15.90
O       2.90      16.61      19.13
O       0.60      16.61      16.32
H       1.75      13.62      17.82
O      -0.48      14.14      16.36
H      -1.61      17.12      17.97
O       0.61      16.65      19.05
C       1.75      16.99      15.92
O      -0.45      14.14      19.09
C       1.75      16.98      19.52
O       2.88      16.64      16.39
O       1.75      14.59      17.73
O      -2.74      14.11      19.08
O      -2.76      14.16      16.34
C      -1.59      13.78      19.52
O      -1.61      16.18      17.73
