23

Zn      18.22       7.13       3.03
Zn      19.84       4.43       3.14
Zn      16.64       4.37       3.12
O      18.23       5.32       3.78
O      19.81       7.57       1.97
Zn      18.20       5.34       5.74
O      16.73       7.30       1.76
O      16.49       4.59       6.37
O      20.99       5.62       2.07
O      20.96       3.90       4.66
O      15.82       3.35       4.59
O      15.31       5.65       2.42
O      19.43       2.81       2.12
O      18.34       7.19       6.38
O      18.11       8.44       4.49
O      17.19       3.06       1.77
O      19.69       4.28       6.50
C      20.75       3.88       5.91
C      20.82       6.84       1.71
C      15.60       6.71       1.78
C      15.76       3.72       5.81
C      18.30       2.44       1.66
C      18.24       8.30       5.75
