23

Zn       7.56       8.98      15.55
Zn       7.43      10.81      18.24
Zn       9.02      11.86      15.70
Zn       5.86      11.73      15.63
O       7.47      10.81      16.28
O       7.54       7.65      17.02
O       8.92      11.74      19.12
O      10.23      10.75      14.64
C       7.48       7.84      18.28
O       9.22       8.70      14.52
C      10.17       9.53      14.27
O       7.43       8.96      18.89
C       5.07       9.33      14.03
O      10.00      12.49      17.27
O       6.05       8.56      14.34
O       5.78      11.65      18.90
O       8.60      13.45      14.63
O       4.89      10.52      14.44
O       6.32      13.32      14.58
O       4.63      12.31      17.04
C       4.79      12.18      18.31
C       9.87      12.37      18.53
C       7.43      13.86      14.28
