24

Zn       5.75       0.80       7.30
Zn       5.75      -0.80      10.87
N       3.56       0.81       7.38
N       3.56      -0.81      10.79
O       5.75       2.10       8.83
O       5.75      -2.10       9.34
O       5.75       1.23      10.93
O       5.75      -1.23       7.24
O       5.75       1.05       5.33
O       5.75      -1.05      12.84
C       5.75       2.30       4.98
C       5.75      -2.30      13.19
C       5.75       2.20      10.10
C       5.75      -2.20       8.07
C       8.62       1.87       7.84
C       8.62      -1.87      10.33
C       2.87      -1.87      10.33
C       2.87       1.87       7.84
C       8.62      -0.23       6.89
C       8.62       0.23      11.28
C       2.87       0.23      11.28
C       2.87      -0.23       6.89
N       7.93       0.81       7.38
N       7.93      -0.81      10.79
