62

O      12.58       2.84      17.08
O      13.76       3.74      15.41
O      10.92       4.02      14.92
Tb      12.07       1.94      14.89
O      10.16       1.24      15.99
O       9.71       2.70      13.61
O      14.41       1.20      14.43
O      12.78       0.08      16.35
Tb       9.12       0.83      12.40
O       8.67       0.22      14.61
C       7.72      -0.89      10.64
C       6.99      -1.73       9.65
C      11.29      -1.05      13.09
C      12.06       2.24      11.53
C       4.41       0.44      12.62
C       5.12       1.75      14.89
C       8.26       2.51       8.31
C       6.57       4.11       9.72
H       4.73      -0.20      11.78
H       4.07       1.41      12.25
H       3.62      -0.07      13.19
H       4.62       2.59      14.40
H       5.95       2.12      15.51
H       4.42       1.17      15.52
H       8.85       1.59       8.31
H       8.91       3.39       8.28
H       7.54       2.51       7.47
H       6.01       4.27      10.65
H       5.89       4.10       8.86
H       7.35       4.88       9.62
C      13.46       3.66      16.65
C      14.20       4.50      17.64
C       9.90       3.82      14.20
C       9.13       0.53      15.76
C      16.78       2.34      14.68
C      16.07       1.02      12.40
C      12.93       0.26      18.99
C      14.61      -1.34      17.57
S       5.86       0.66      13.66
S       7.36       2.49       9.87
H      16.46       2.97      15.51
H      17.12       1.36      15.04
S      15.32       2.12      13.63
S      13.83       0.28      17.42
H      17.57       2.84      14.10
H      16.57       0.18      12.90
H      15.24       0.66      11.78
H      16.77       1.60      11.78
H      12.34       1.19      18.98
H      12.28      -0.62      19.01
H      15.30      -1.33      18.43
H      13.84      -2.11      17.67
H      13.65       0.27      19.82
H      15.18      -1.50      16.64
O       8.61      -0.07      10.21
O       7.43      -0.97      11.88
O      10.27      -1.25      12.37
O      11.48       0.07      13.69
O      11.03       1.53      11.30
O       8.41       2.69      10.94
O      12.52       2.56      12.68
O       6.77       1.57      12.86
