15

N      22.77       3.70       7.79
N      23.74       4.67       7.79
C      24.80       8.01       4.67
Cu      21.44       5.99       4.27
Cu      23.73       5.97       6.47
Cu      21.47       3.71       6.47
C      19.42       2.64       4.69
C      19.34       4.29       3.21
C      24.66       4.35       8.72
C      23.09       2.78       8.72
N      20.23       3.63       5.11
N      23.82       7.20       5.10
N      22.79       7.24       4.18
N      20.18       4.65       4.19
C      23.15       8.08       3.19
