18

O       4.66       1.17      16.14
O       1.23      -1.17      19.01
Al       4.07      -0.13      17.46
Al       0.74      -0.09      17.50
O       2.42       0.73      17.48
O       6.92       1.00      15.97
O       0.15       1.25      18.73
O       5.75      -0.93      17.47
C       2.36      -1.64      19.35
C       2.41      -1.73      15.69
C       5.77       1.39      15.57
C       5.72       1.45      19.32
H       2.43       1.55      17.99
H       5.79      -1.74      16.93
O       1.33      -1.44      16.30
O       3.48      -1.43      18.76
O       4.58       1.01      18.93
O       3.57      -1.29      16.02
