23

Zn       7.27      18.73       0.97
Zn       8.92      20.26      -1.22
Zn       8.86      17.05      -1.21
Zn      10.56      18.59       0.99
O       8.92      18.66      -0.09
O       6.12      20.27       0.62
O       8.69      19.76      -3.13
O       7.20      16.06      -0.99
O       7.43      21.45      -0.82
O       6.24      17.08       0.80
O       9.17      17.54      -3.11
O      10.35      15.85      -0.80
O      10.05      18.43       2.91
O      11.69      17.03       0.60
O       7.82      18.94       2.87
O      10.58      21.25      -1.03
O      11.59      20.24       0.74
C       6.40      21.31      -0.08
C       8.97      18.65      -3.68
C       6.34      16.14      -0.05
C      11.41      16.01      -0.11
C       8.92      18.67       3.46
C      11.47      21.18      -0.12
