12

O      -3.70       5.12      12.70
Cd      -2.00       3.49      13.22
C      -0.25       5.13      15.66
C      -0.99       6.36      14.01
C       0.25       3.02      11.65
O      -0.26       2.15      12.47
C      -3.26       2.11      16.04
N      -2.99       1.99      14.68
C      -2.94       0.69      14.41
C      -4.18       4.33      11.80
N      -0.90       5.10      14.43
O      -3.65       3.21      11.55
