14

Zn      -2.15       8.20       1.37
Zn      -3.59       9.22      -0.69
O      -3.56       9.54       2.01
O      -4.79      10.38       0.32
O      -0.70       9.49       1.38
C      -4.23       6.58       0.94
O      -1.59       7.43      -0.48
C      -1.89       7.50      -1.71
O      -1.86      10.30      -0.41
O      -2.84       8.22      -2.20
C      -4.51      10.26       1.57
O      -3.24       6.62       1.75
C      -0.87      10.30       0.39
O      -4.53       7.45       0.07
