20

Zn       5.30       5.89       8.54
Zn       5.32       8.86       8.84
C       5.35       7.85       6.15
C       2.76       7.09       8.72
C       5.23       7.38      11.27
C       7.86       7.16       8.67
C       4.36      11.78       8.37
C       6.07      11.68       9.94
C       6.14       2.97       9.46
C       4.70       2.97       7.64
N       5.25      11.06       9.08
N       5.43       3.65       8.54
O       5.18       6.68       6.59
O       5.54       8.92       6.81
O       3.39       8.19       8.62
O       3.29       5.92       8.72
O       5.08       8.56      10.85
O       5.36       6.32      10.60
O       7.28       6.06       8.37
O       7.28       8.25       8.96
