20

Zn       3.88      14.61      13.24
Zn       3.81      14.54      10.34
C       3.90      17.16      11.39
C       1.27      14.65      12.18
C       3.67      11.95      11.79
C       6.47      14.61      11.79
N       4.25      14.36      15.26
N       4.03      14.16       8.31
O       3.98      16.56      12.52
O       1.86      14.54      11.05
O       3.70      16.58      10.27
O       1.85      14.82      13.30
O       3.58      12.58      12.90
O       5.86      14.73      10.67
O       3.88      12.51      10.66
O       5.91      14.43      12.92
C       5.11      13.37      15.55
C       4.98      13.24       8.02
C       3.68      15.02      16.28
C       3.41      14.77       7.30
