11

Zn      -1.24      10.25      26.00
O      -0.72       9.62      24.16
C      -0.50       8.35      24.17
C      -1.50      12.58      24.24
N      -1.47      12.22      25.54
O      -0.43      10.12      27.84
C      -3.39       9.31      27.76
C       0.78      10.56      27.83
N      -3.06       9.46      26.46
C      -1.63      13.19      26.47
C      -3.98       9.12      25.53
