24

Al      12.26       7.69      13.03
Al      10.68       4.92      13.45
Al       9.08       7.47      13.40
H      13.96       8.80      11.87
C      12.84       5.52      15.04
C       8.84       5.59      15.54
C      10.55       9.19      14.99
C      12.36       5.22      11.26
C       8.34       5.18      11.87
C      10.09       8.84      11.22
O      11.64       8.89      14.45
O       9.21       4.40      12.38
O       8.00       6.33      12.35
O       9.03       8.60      11.93
O      10.65       6.68      13.29
O      13.07       6.61      14.44
O      12.06       4.58      14.62
O       9.57       4.70      14.99
O       8.37       6.63      14.96
O       9.37       8.91      14.54
O      11.29       8.67      11.57
O      12.71       6.38      11.58
O      11.71       4.38      12.00
O      13.73       8.61      12.79
