14

Zn      -2.28      -3.03       7.76
Zn      -3.72      -5.32       7.60
C      -1.60      -5.45       5.96
C      -1.30      -4.72       9.56
C      -4.76      -3.86       9.54
C      -4.14      -2.79       5.84
O      -1.34      -4.31       6.45
O      -2.64      -6.17       6.24
O      -1.09      -3.48       9.27
O      -2.17      -5.44       8.99
O      -3.97      -3.02       9.03
O      -4.99      -5.04       9.09
O      -3.26      -2.02       6.38
O      -4.44      -3.96       6.25
