35

Zn       7.95       9.97      17.81
Zn       8.76      10.96      21.73
Zn      11.08      10.50      20.15
Zn       6.32      11.71      19.53
C       6.91       8.43      21.40
C       8.60      12.92      18.01
N      10.61       8.93      21.35
N       5.57      12.02      17.80
N       7.27       8.70      16.45
N      11.66      11.64      21.73
N       9.73       9.28      22.32
N       6.37      11.40      16.87
N       7.90       9.02      15.26
N      10.53      11.96      22.43
N       6.60       9.67      19.62
N       9.34      11.97      19.87
N      11.14       9.78      18.34
N       6.25      12.41      21.34
N       9.94       9.28      17.86
N       7.20      12.05      22.26
N       7.43       9.44      20.70
N       8.42      11.86      18.83
C      11.42       7.97      21.84
C       4.68      12.81      17.16
C       6.01       8.29      16.20
C      12.74      12.07      22.43
C       9.97       8.54      23.41
C       5.97      11.82      15.66
C      10.91      12.58      23.55
C       5.56       8.79      19.69
C      10.03      13.13      19.67
C      12.14       9.00      17.87
C       5.36      13.22      21.96
C      10.23       8.21      17.10
C       6.91      12.64      23.42
