28

Co       1.85      16.74      16.49
Co      -2.06      16.75      16.51
O      -1.47      16.98      14.51
H       0.11      16.79      14.46
H      -3.79      18.78      16.45
O       2.43      18.73      16.26
H       1.40      15.96      13.99
H      -2.50      19.25      17.28
H       3.58      16.66      18.56
O       1.12      16.70      14.55
H      -0.33      14.68      16.58
O      -2.78      18.69      16.54
O       2.57      16.70      18.44
H       2.18      17.26      19.13
O      -1.33      14.80      16.54
H      -1.72      14.11      15.98
O      -0.10      17.38      17.12
H      -0.25      17.25      18.14
O       3.80      16.12      15.86
H       3.66      15.10      15.99
H       0.04      18.39      16.93
H       3.95      16.31      14.85
C       2.05      13.69      16.73
C      -1.85      16.51      19.56
C      -2.22      16.99      13.45
C       1.69      19.79      16.25
O       1.28      14.72      16.70
O      -2.63      16.54      18.52
