18

Al       2.20       2.64      11.38
O       2.90       3.98      10.26
Al       5.60       2.56      11.38
O      -0.51       1.22      10.26
O       1.67       1.67       9.81
O       5.07       3.52       9.81
H       3.84       0.93      11.93
H       0.44       4.27      11.93
O       2.73       3.71      12.94
O       6.13       1.49      12.94
C       3.95       4.05       9.54
C       0.55       1.15       9.54
O       3.89       1.76      11.44
O       0.48       3.43      11.44
C       3.89       4.12      13.24
C       0.49       1.08      13.24
O       4.98       3.93      12.59
O       1.57       1.26      12.59
