15

C      16.58      19.35      27.86
C      19.49      22.61      34.18
C      17.57      23.33      33.35
Cu      18.81      19.09      29.73
Cu      20.08      20.47      32.28
Cu      17.39      21.62      30.98
N      20.96      19.04      31.51
N      20.40      18.45      30.40
N      17.26      19.72      28.96
N      16.72      20.91      29.42
N      18.02      22.34      32.55
N      19.22      21.89      33.08
C      21.22      17.47      29.98
C      22.11      18.40      31.78
C      15.72      21.26      28.58
