23

Zn      16.21      16.35      22.43
Zn      17.72      15.42      25.11
Zn      15.97      18.11      25.10
Zn      14.52      15.25      24.95
C      18.50      17.81      26.64
O      16.11      16.28      24.39
O      17.85      15.52      21.75
C      18.81      14.97      22.39
O      18.76      16.61      26.29
O      18.92      14.86      23.66
C      13.38      17.58      26.39
O      16.02      19.45      23.66
C      16.11      19.30      22.39
O      16.19      18.19      21.75
O      17.49      18.49      26.28
O      14.70      15.40      21.60
O      17.28      13.81      26.13
O      15.00      13.68      26.02
O      14.33      18.41      26.13
C      13.72      14.78      22.14
C      16.16      13.27      26.39
O      13.51      14.62      23.38
O      13.31      16.36      26.02
