22

Zn       0.94      17.61      13.99
N       6.38      17.98      14.41
Zn       6.09      17.51      16.42
N       5.58      19.01      17.75
N       0.42      16.11      12.66
Cl       0.87      19.71      13.28
Cl       6.03      15.41      17.13
O      -2.17      17.99      16.84
O       2.99      17.13      13.57
H       2.17      17.51      16.16
H       7.33      17.61      14.25
C       4.51      19.81      17.59
C      -0.64      15.30      12.81
C       6.38      19.19      18.82
C       1.22      15.93      11.59
C       1.27      15.67      16.19
C       6.42      19.45      14.22
C       0.20      17.81      16.83
C       5.36      17.30      13.58
C      -1.16      17.74      16.12
C       4.00      17.38      14.29
N       1.22      17.14      16.00
