24

Al      20.79      12.23      26.13
Al      17.61      12.18      26.58
Al      19.08       9.56      26.63
H      22.69      13.53      26.54
C      18.70      13.47      24.38
C      16.79      10.02      24.96
C      20.82       9.67      24.51
C      19.16      13.81      28.16
C      17.20      10.21      28.64
C      21.20      10.20      28.30
O      21.24      10.81      24.85
O      19.88      13.10      24.62
O      17.70      13.43      25.20
O      16.52      11.19      25.41
O      17.58       9.18      25.51
O      20.09       8.88      25.22
O      21.50      11.27      27.69
O      20.17      13.61      27.44
O      17.94      13.48      27.86
O      16.79      11.26      28.06
O      17.94       9.30      28.13
O      20.45       9.25      27.85
O      19.14      11.31      26.46
O      22.28      13.06      25.79
