14

C       8.58       2.12      14.21
O       9.45       1.28      13.80
Zn      10.58      -0.10      14.79
Zn       9.26       1.13      16.68
C      11.27      -1.10      17.26
O      10.39      -0.26      17.67
C       8.03      -1.23      15.59
C      11.81       2.25      15.88
O       8.26       2.34      15.42
O      11.58      -1.32      16.05
O       9.00      -1.36      14.76
O      10.84       2.38      16.71
O       7.85      -0.29      16.43
O      11.99       1.31      15.04
