24

Al      14.17       6.86      13.72
Al      16.00       4.21      13.77
Al      17.36       6.88      13.78
O      14.89       8.09      12.39
O      17.41       3.92      15.01
O      18.36       5.97      15.08
O      17.07       8.17      15.11
O      15.86       5.96      13.76
O      13.71       5.66      12.22
O      14.73       3.65      12.54
O      17.25       3.93      12.37
O      18.34       5.93      12.42
O      17.16       8.16      12.45
O      14.82       7.93      15.23
O      13.57       5.52      15.06
H      11.88       7.25      14.12
O      14.92       3.71      15.21
C      14.02       4.49      11.87
O      12.62       7.69      13.68
C      18.03       4.81      11.88
C      16.02       8.38      11.90
C      14.09       4.57      15.70
C      18.09       4.83      15.61
C      15.93       8.35      15.68
