23

Zn      18.38       7.26       8.84
Zn      16.86       4.41       8.69
Zn      18.60       5.47       6.19
Zn      20.05       4.50       8.85
O      18.46       5.41       8.15
O      16.72       7.54       9.86
O      15.87       3.78       7.12
O      18.57       7.30       5.50
O      15.65       5.52       9.78
O      18.41       8.58       7.39
O      17.09       4.52       5.34
O      20.23       4.61       5.52
O      21.09       5.68      10.04
C      15.76       6.74      10.14
O      19.90       7.62      10.03
C      18.48       8.41       6.12
O      17.33       2.83       9.77
C      20.89       6.91      10.41
C      16.07       3.90       5.87
C      18.47       2.39      10.15
O      21.28       3.94       7.44
O      19.61       2.90       9.89
C      21.19       4.06       6.17
