18

Mg       3.01      18.41      11.83
O       1.64      17.00      11.41
Mg       0.74      18.18      10.03
C       3.35      21.36      12.55
Mg       5.28      19.85      10.72
O       3.73      18.73       9.96
O       2.13      18.00       8.58
O      -0.63      19.25       9.01
C       1.05      20.83      11.58
O       1.46      19.64      11.24
C      -1.19      19.01       7.82
C       3.32      18.43       8.76
O       6.67      21.20      11.30
C       1.08      16.08      12.22
O       3.91      20.20      12.16
C       5.58      17.19      12.24
O       4.40      17.24      12.71
O      -0.81      18.07      11.39
