33

Cu       5.10       6.58       9.37
H       6.06       5.30       4.34
H       4.14       7.85       4.34
H       5.12       4.23       2.31
H       5.08       8.93       2.31
H       2.70       3.67       2.20
H       7.50       9.49       2.20
H       1.23       4.15       4.14
H       8.97       9.01       4.14
H       2.17       5.17       6.20
H       8.03       7.98       6.20
H       3.76       4.26       8.98
H       6.44       8.90       8.98
C       4.70       5.95       6.62
C       5.50       7.21       6.62
C       4.18       5.32       5.40
C       6.02       7.84       5.40
C       5.00       5.06       4.29
C       5.20       8.10       4.29
C       4.47       4.46       3.15
C       5.73       8.69       3.15
C       3.11       4.15       3.09
C       7.09       9.01       3.09
C       2.28       4.41       4.18
C       7.92       8.74       4.18
C       2.81       4.99       5.34
C       7.39       8.17       5.34
N       4.49       5.49       7.82
N       5.71       7.67       7.82
Cl       4.21       5.09      10.83
Cl       5.99       8.06      10.83
O       3.84       4.31       7.97
O       6.36       8.85       7.97
