21

Mn      -0.00       6.34       3.66
Mn      -2.77       8.32       3.66
Mn       2.77       7.33       5.38
C       2.13       6.99       1.17
C      -0.64      10.15       5.47
C      -3.41       4.85       6.05
C       3.41       7.67       1.17
C      -2.14       4.51       5.47
C       0.63       9.81       6.06
N       1.79       6.80       2.49
N      -0.98       9.10       4.64
N      -3.75       6.08       5.56
N       3.75       7.86       2.49
N      -1.79       5.55       4.64
N       0.98       8.57       5.56
N       2.77       7.33       3.22
N      -0.00       8.21       4.74
N      -2.77       6.45       4.74
Cl       1.38       5.30       5.40
Cl      -1.39       7.33       1.89
Cl       4.16       9.36       5.40
