20

Zn       6.24       5.71      12.18
Zn       3.39       5.77      12.02
C       5.02       8.33      12.30
C       4.58       5.44      14.68
C       4.75       3.16      12.02
C       4.92       5.97       9.55
C      10.50       6.66      13.10
C      10.48       5.17      11.34
C       9.07       5.05      11.46
C       9.08       6.53      13.22
N      11.18       5.94      12.13
N       8.39       5.71      12.35
O       6.15       7.78      12.12
O       3.91       7.73      12.47
O       3.49       5.29      14.02
O       5.69       5.81      14.17
O       3.67       3.74      11.72
O       5.87       3.71      12.29
O       6.00       5.70      10.17
O       3.78       6.17      10.09
