19

O       2.35       1.91       4.68
Dy       0.19       3.24       3.89
C      -2.06       4.64       1.77
O       1.89       4.49       5.05
H       2.55       1.24       4.00
H       1.98       1.43       5.44
C      -2.15       1.89       7.17
H       2.76       4.09       4.96
H       1.95       5.48       4.88
C      -1.37       2.29       5.97
C      -1.46       6.15       4.97
C       0.01      -0.00       3.69
O      -1.32       3.72       2.21
C       1.93       4.39       1.64
O       1.79       3.27       2.20
O      -1.97       2.64       4.90
O      -0.08       2.29       6.04
O      -0.63       5.31       4.48
O       0.02       1.12       3.11
