19

Yb      15.73       9.08       5.48
O      13.21      11.45       3.24
O      19.04      10.08       3.24
O      14.94       5.71       3.24
N      13.97      10.78       3.96
N      18.09       9.76       3.96
N      15.14       6.70       3.96
O      14.19       8.12       6.77
O      15.67      10.89       6.77
O      17.33       8.23       6.77
C      14.00       6.96       7.34
C      14.76      11.64       7.34
C      18.43       8.64       7.34
O      13.55      10.13       4.98
O      17.73      10.44       4.98
O      15.91       6.67       4.98
O      15.23      10.70       3.72
O      17.38       8.71       3.72
O      14.58       7.84       3.72
