16

Zn       3.32       9.50       1.11
Zn       5.92       9.11      -1.11
C       2.51      11.66       3.07
O       5.00       8.71       0.59
O       2.41       9.90      -0.60
O       4.70      10.35      -2.07
C       2.63       7.83       3.20
C       6.61       6.20      -1.70
O       2.10       8.26       2.07
H       3.07      10.06      -1.31
H       5.66       8.55       1.31
C       5.10       6.95      -3.07
C       5.22      10.78      -3.20
C       4.02      12.41       1.70
N       3.30      11.28       2.09
N       5.90       7.33      -2.08
