18

Al       3.25       5.08       8.67
Al       6.58       5.12       8.69
H       4.95       3.50       8.02
H       1.58       5.91      10.22
O       7.14       3.25       8.75
O       4.92       4.46       8.16
O       1.59       5.66       9.28
C       1.61       2.66       8.89
C       1.55       5.13       6.28
C       4.87       7.50       8.63
C       4.91       5.04      11.13
O       2.75       3.22       8.91
O       7.08       5.27       6.86
O       6.01       6.94       8.67
O       3.80       5.17      10.52
O       3.76       6.90       8.43
O       6.06       5.00      10.58
O       2.67       5.01       6.87
