25

C      29.33      11.02       5.49
O      25.98       7.50       5.30
Cu      26.95       9.18       5.30
C      26.49       3.93       8.56
Cu      25.98       6.38       6.88
C      22.64       6.15       2.05
Cu      25.02       6.94       3.72
C      25.48       5.62       9.75
C      27.35      12.15       5.12
N      27.54       8.83       7.19
N      28.30       9.56       7.99
N      24.84       5.04       5.93
N      24.35       3.88       6.35
N      25.61       8.61       2.78
N      25.36       9.02       1.54
N      27.13       7.73       7.83
N      27.61       7.72       9.06
N      26.36       9.51       3.42
N      26.61      10.54       2.61
N      24.43       5.28       4.68
N      23.67       4.28       4.26
N      23.97       6.34       2.02
N      27.99      10.99       5.30
N      25.98       5.18       8.59
C      24.61       6.12       0.85
