18

Al       5.39       4.80       6.30
O       3.71       4.86       7.11
Al       2.04       4.77       6.28
O       7.06       4.71       5.48
H       3.70       5.43       7.90
H       7.04       4.14       4.69
C       3.72       6.49       4.56
C       7.06       3.08       8.02
C       3.73       2.85       4.83
C       7.07       6.72       7.75
O       2.59       3.34       5.12
O       5.93       6.23       7.47
O       4.86       6.08       4.95
O       1.52       3.49       7.63
O       4.85       3.32       5.21
O       1.50       6.25       7.38
O       5.93       3.52       7.63
O       2.58       6.05       4.96
