72

Al       6.09       6.09       0.00
O       7.20       6.84       1.32
O      11.33      11.69       1.32
Al      12.44      12.44       0.00
Al       6.68       7.54       2.98
Al      11.85      11.00       2.98
O       6.84       7.20      -1.32
O       4.73       7.44       0.36
O      11.69      11.33      -1.32
O      13.80      11.09       0.36
Al       7.54       6.68      -2.98
Al       9.27       9.27       4.19
Al      11.00      11.85      -2.98
O      11.09      13.80      -0.36
O       7.44       4.73      -0.36
O       4.88       5.37      -1.27
Al       9.27       9.27      -4.19
O      13.65      13.16      -1.27
H       8.12       7.03       1.07
H      10.42      11.50       1.07
O      13.16      13.65       1.27
O       5.37       4.88       1.27
O       7.96       8.90       2.87
H       7.03       8.12      -1.07
O      10.57       9.63       2.87
H      11.50      10.42      -1.07
O       9.63      10.57      -2.87
O       8.90       7.96      -2.87
O       6.10       8.12       4.68
C       4.64       8.43       1.14
O      12.43      10.41       4.68
C      13.89      10.10       1.14
H       7.57       9.71       2.53
H      10.97       8.82       2.53
O      10.41      12.43      -4.68
O       8.12       6.10      -4.68
O       5.38       8.70       2.14
C      10.10      13.89      -1.14
O      13.15       9.83       2.14
C       8.43       4.64      -1.14
H       8.82      10.97      -2.53
H       9.71       7.57      -2.53
O       9.83      13.15      -2.14
O       8.70       5.38      -2.14
O       5.38       6.18       3.12
C       8.54       6.79      -5.67
O      13.15      12.35       3.12
C      10.00      11.74      -5.67
C      12.14       9.42      -4.26
C       6.39       9.12      -4.26
O      12.35      13.15      -3.12
O       6.18       5.38      -3.12
O       7.91       6.30       3.86
C       6.79       8.54       5.67
O      10.62      12.23       3.86
C      11.74      10.00       5.67
O      12.23      10.62      -3.86
O       6.30       7.91      -3.86
O       8.01       8.92       5.62
O      10.52       9.61       5.62
O       9.61      10.52      -5.62
O       8.92       8.01      -5.62
O       8.71      11.07       4.21
O       9.82       7.46       4.21
O       7.46       9.82      -4.21
O      11.07       8.71      -4.21
C       9.12       6.39       4.26
C       9.42      12.14       4.26
C      13.20      13.49       2.53
C       5.33       5.04       2.53
C       5.04       5.33      -2.53
C      13.49      13.20      -2.53
