20

Zn       4.43       6.42      11.90
Zn       7.20       6.40      11.98
C       5.84       9.00      11.95
C       5.88       6.44       9.32
C       5.81       3.81      11.84
C       5.70       6.29      14.55
C       1.60       6.00      12.81
C      10.03       6.82      10.96
S       1.52       6.97      10.49
S      10.12       5.84      13.28
N       2.37       6.41      11.81
N       9.26       6.41      11.96
O       4.71       8.43      12.11
O       6.97       8.42      11.82
O       6.97       6.24       9.93
O       4.75       6.69       9.85
O       6.93       4.37      12.09
O       4.71       4.41      11.60
O       4.58       6.11      13.94
O       6.83       6.52      14.00
