16

Cu       4.04       6.86       6.86
Si       0.03       6.86       6.86
C       2.90       9.60       6.86
C       2.86       4.15       6.86
C       5.18       4.12       6.86
C       2.90       6.86       9.60
C       5.23       6.86       9.57
C       2.86       6.86       4.15
C       5.18       6.86       4.12
N       4.06       8.91       6.86
N       4.03       4.81       6.86
N       4.06       6.86       8.91
N       4.03       6.86       4.82
F       1.76       6.89       6.89
F       6.32       6.83       6.83
C       5.23       9.57       6.86
