23

Zn      12.81      14.16      10.10
Zn      13.01      12.40       7.44
Zn      11.32      15.13       7.42
Zn      14.52      15.20       7.59
C      12.92      11.21      10.14
C      10.53      12.72       5.88
C      10.21      15.54      10.15
C      12.92      17.24       6.14
C      15.31      15.72      10.39
C      15.63      12.90       6.14
O      12.91      14.23       8.14
O      12.84      12.31      10.78
O      11.52      11.99       6.23
O      10.11      15.68       8.88
O      13.00      11.05       8.87
O      11.17      14.99      10.78
O      10.31      13.93       6.24
O      11.77      16.74       6.39
O      15.53      15.86       9.14
O      14.05      16.78       6.52
O      14.33      15.10      10.93
O      14.66      12.12       6.42
O      15.75      14.13       6.50
