10

Al       3.79       4.02       6.99
O       4.83       3.01       5.72
O       4.84       3.42       8.48
O       4.85       5.59       6.77
O       2.73       2.43       6.82
O       2.73       4.94       5.69
O       2.74       4.66       8.45
C       5.80       4.05       9.04
C       5.80       2.22       5.98
C       5.78       5.77       5.91
