10

Al       3.94      14.34      16.56
C       5.91      14.23      14.49
C       5.91      16.19      17.50
C       5.91      12.60      17.69
O       4.98      13.45      17.90
O       4.98      13.62      15.12
O       4.98      15.95      16.66
O       2.89      12.75      16.83
O       2.89      15.37      17.80
O       2.89      14.91      15.05
