12

C       7.23       6.89      46.75
C       3.79      10.92      46.96
O       4.39       7.36      48.23
N       3.28       7.44      45.09
Zn       4.55       8.13      46.43
C       7.06       7.51      44.67
C       5.67      10.96      45.85
C       2.52       6.35      45.28
N       6.39       7.45      45.88
C       3.17       7.74      43.75
C       3.35       7.85      48.85
N       4.73      10.13      46.44
