54

Zr      -7.71      10.03      14.22
Zr     -11.18      12.10      17.15
Zr      -7.64      12.07      17.10
Zr     -11.25      10.07      14.26
Zr      -9.45       9.03      17.12
Zr      -9.45      13.11      14.24
H      -6.66       9.44      16.79
H     -12.23       9.48      16.85
H      -9.41      14.28      16.82
H      -9.49      11.07      12.28
O      -7.03       8.00      14.66
O     -11.86      11.01      18.92
O     -11.96      14.08      16.63
O      -6.93      11.19      12.53
O      -5.54      11.75      16.57
O     -10.69       8.79      12.56
O     -13.36      10.47      14.74
O      -8.21      13.25      18.87
O      -8.14       8.95      18.87
O      -8.04      14.73      14.67
O     -10.86      13.24      12.57
O     -10.75       7.35      16.61
O      -6.85      14.14      16.51
O     -12.05      11.32      12.52
O     -11.97       7.95      14.79
O      -6.93      10.87      18.92
O      -5.54      10.44      14.71
O     -10.47      13.31      18.94
O     -13.35      11.77      16.60
O      -8.42       8.75      12.48
O      -8.02      13.17      12.48
O      -8.08       7.31      16.55
O     -10.82       8.99      18.93
O     -10.88      14.79      14.77
O      -9.48      11.07      13.24
O      -9.41      13.37      16.50
O     -11.44       9.93      16.52
O      -7.46       9.90      16.48
C      -7.25       7.15      15.59
C     -11.65       9.85      19.40
O     -10.92      11.93      15.10
C     -11.73      14.93      15.71
O      -9.48       9.38      15.08
O      -9.42      11.07      17.48
C      -7.16      12.34      12.03
O      -7.98      11.90      15.07
C      -9.58       8.43      12.04
C      -4.95      11.10      15.63
C      -9.32      13.61      19.39
C      -7.27       9.73      19.38
C      -7.17      14.95      15.58
C     -13.95      11.13      15.67
C     -11.73      12.47      12.06
C     -11.63       7.13      15.71
