20

Zn       7.16       8.92      15.69
Zn       9.97       9.16      15.51
N      12.04       9.25      15.45
N       5.09       8.77      15.76
O       7.70       6.96      15.84
O       9.87       7.08      15.21
O       9.87       8.80      17.53
O       7.64       9.16      17.71
O       9.45      11.12      15.88
O       7.24      10.96      15.46
O       7.28       8.74      13.60
O       9.45       9.38      13.55
C       8.81       6.43      15.48
C       8.80       8.97      18.20
C       8.30      11.63      15.67
C       8.37       8.99      13.00
C      12.65       8.31      16.21
C      12.79      10.11      14.73
C       4.36       8.02      16.63
C       4.46       9.54      14.85
