23

Zn       8.94       5.80      15.84
Zn       7.31       6.77      18.41
Zn      10.57       6.30      18.55
Zn       8.60       3.84      18.28
C      11.29       3.72      19.49
O       8.85       5.72      17.79
O       6.19       7.34      16.89
O       7.59       7.02      15.12
O      11.96       6.29      17.11
O      10.63       6.65      15.30
O       7.98       2.73      16.80
O       8.69       4.01      15.05
O      10.34       8.15      19.14
O       8.08       8.49      19.05
O       7.36       3.79      19.79
O       6.46       5.88      19.93
O      10.35       3.14      18.84
O      11.35       4.95      19.79
C       6.63       7.60      15.72
C      11.76       6.55      15.88
C       8.15       2.98      15.57
C       9.28       8.86      19.23
C       6.76       4.73      20.39
