24

Al      14.87       6.80      13.73
Al      18.08       6.99      13.69
Al      16.84       4.27      13.67
O      14.49       5.71      15.28
O      19.10       6.30      12.28
O      18.25       4.20      12.34
O      15.78       3.63      12.33
O      16.63       6.02      13.72
O      15.63       8.19      14.97
H      12.85       7.73      12.98
C      16.72       8.53      15.50
O      17.91       8.20      15.08
O      19.17       5.92      14.94
O      18.17       3.88      14.93
O      15.62       3.74      14.99
O      14.33       5.37      12.50
O      15.44       7.82      12.15
O      17.62       8.37      12.47
C      19.00       4.74      15.39
C      14.86       4.56      15.64
C      16.50       8.44      11.85
O      13.29       7.53      13.81
C      18.90       5.13      11.77
C      14.82       4.39      11.87
