36

Al       5.10      -1.28      11.68
Al       1.00       0.58      12.90
Al       9.20       0.71      10.68
O       0.87       1.38      14.60
O       9.07       1.78       9.14
P       2.07      -0.95      10.26
P      -2.03      -0.82      13.33
P       6.17       1.78      11.68
O       4.45      -1.47      13.42
O       0.35       2.18      12.19
O       8.55      -0.71       9.65
O       6.07      -1.13      10.12
P       4.58      -4.37      10.73
O       1.97      -0.85      13.55
P       0.47       1.30      16.05
P       7.27      -1.42       9.24
P       3.17      -1.46      14.24
P      -0.93       2.89      11.78
O      10.17       1.98      11.59
P       8.68       3.08       8.48
H       6.64      -1.32      13.61
H       2.54       2.27      11.97
H      10.74      -0.95       9.68
H       7.71      -1.09      12.44
H       3.61       1.14      12.35
H      11.81      -0.05      10.47
O       6.83      -1.51      12.68
O       2.73       1.56      12.61
O      10.93      -0.04       9.98
O       3.47      -0.97      10.81
O      -0.63      -0.33      13.07
O       7.58       1.31      11.38
O       1.08      -0.10      11.08
O       9.28      -0.53      12.19
O       5.18       0.64      12.00
O       4.97      -3.15      11.52
