23

Zn      10.02      10.50      11.03
O      10.10      14.52      13.31
O      12.09      10.68      15.15
Zn       9.90      12.57      13.45
Zn      12.34      10.49      13.21
Zn      12.09      12.91      11.13
O      14.03      12.76      11.41
C      10.66      15.19      12.37
C      14.68      11.80      11.95
C      11.10      11.19      15.78
O      12.04       8.61      12.74
O       8.03      12.12      13.04
O      11.73      12.60       9.22
C      11.02       8.04      12.22
C       7.52      11.65      11.97
C      11.29      11.56       8.63
O      10.04       8.64      11.65
O       8.16      11.13      10.99
O      10.73      10.55       9.20
O      11.10      11.63      12.22
O      11.41      14.72      11.45
O      14.17      10.84      12.63
O      10.17      11.89      15.26
