10

Al       0.30      20.90      20.14
O       1.38      22.15      19.18
O       1.38      19.44      19.53
O       1.38      21.10      21.70
O      -0.77      21.14      18.57
O      -0.77      22.13      21.13
O      -0.76      19.42      20.71
C       2.33      18.86      20.13
C       2.33      21.91      21.91
C       2.33      21.92      18.38
