23

Zn       8.16       7.64       6.22
Zn      11.32       7.81       6.79
Zn       9.17       8.29       9.20
Zn       9.43      10.46       6.95
C      10.02       5.66       5.36
C       7.79      10.00       4.58
C       6.44       7.38       8.60
C      12.25      10.51       6.12
C      11.12       6.10       9.23
C       9.68      11.07       9.75
O      10.94       6.54       5.28
O       8.81       5.84       5.69
O       8.15      10.80       5.51
O       7.71       8.74       4.65
O       7.25       7.87       9.45
O       6.58       7.32       7.34
O      11.16      11.14       6.32
O      12.42       9.25       6.07
O      10.16       6.71       9.82
O      11.73       6.47       8.18
O       9.72       9.88      10.20
O       9.20      11.44       8.63
O       9.55       8.54       7.29
