20

Zn       6.26       5.71      22.01
Zn       3.52       5.68      22.08
C       4.91       8.26      21.98
C       4.91       5.67      24.62
C       4.99       3.13      22.09
C       4.78       5.65      19.48
C       9.09       4.87      21.26
C      10.48       6.54      22.83
C      10.49       4.85      21.29
C       9.08       6.58      22.77
N       8.41       5.73      21.99
N      11.16       5.68      22.08
O       5.98       7.69      21.59
O       3.86       7.68      22.38
O       3.79       5.36      24.10
O       5.94       6.07      24.00
O       3.89       3.69      21.78
O       6.06       3.72      22.43
O       5.86       5.29      20.05
O       3.71       6.02      20.06
