15

C       8.66      22.66       4.26
C       8.32      21.10       2.74
Cu       5.71      20.11       3.61
Cu       3.63      20.53       5.95
Cu       6.26      22.30       5.89
C       3.27      21.99       8.44
C       5.08      23.26       8.42
N       3.28      19.27       4.65
N       4.19      19.07       3.64
N       7.26      21.11       3.57
N       7.48      22.07       4.52
N       5.07      22.51       7.29
N       3.94      21.73       7.31
C       3.77      18.03       2.90
C       2.31      18.34       4.53
