18

Mg       1.10      -0.67      17.06
Mg      -1.19       1.03      16.43
C       3.69      -0.45      18.33
Mg       3.38      -0.36      15.27
O       0.22       2.38      15.91
O       1.82       0.83      15.91
O       4.28       1.44      15.01
C       1.42      -2.69      14.80
C       3.70       2.60      14.65
C      -0.87      -1.57      14.83
C       1.41       2.02      15.61
O       4.78      -1.49      14.36
O      -0.46      -0.72      15.71
O       2.00      -1.80      15.62
O      -0.28       0.35      18.13
O       2.50      -0.90      18.49
O       4.10      -0.11      17.15
C      -0.86       0.08      19.31
