18

Zn       6.07       8.14       9.70
Zn       8.87       8.02       9.70
O       6.34       8.23      11.75
O       8.60       7.94       7.65
O       6.34       8.22       7.66
O       8.60       7.94      11.75
C       7.49      10.68       9.70
C       7.45       5.49       9.70
N      10.92       8.08       9.70
N       4.02       8.09       9.70
C       2.86       8.08       9.70
C      12.08       8.09       9.70
C       7.47       8.08      12.31
C       7.47       8.08       7.10
O       6.32      10.17       9.70
O       8.62       5.99       9.70
O       6.34       6.12       9.71
O       8.60      10.05       9.70
