38

N      -2.89      12.77       8.79
Cu      -4.50      -1.37       8.39
Cu      -4.58       2.96       8.14
N      -5.61      12.27       7.72
Cu      -4.16      11.26       8.75
N      -5.28       9.74       8.23
N      -5.23       8.40       8.29
Cu      -4.07       6.93       8.99
N      -5.44       5.81       8.00
N      -5.67       4.52       7.62
O      -5.55      -0.52       7.00
O      -5.71       1.92       6.98
O      -3.10      10.41      10.13
O      -2.94       7.96      10.15
C      -6.60      -3.14       9.37
C      -6.25      -3.63       7.33
C      -3.01      -3.70       9.64
C      -2.10      -1.58       9.96
C      -2.30      -0.17       9.66
C      -2.36       1.91       9.57
C      -2.27       3.34       9.73
C      -1.92       5.35      10.32
C      -2.06      13.03       7.76
C      -2.40      13.52       9.80
C      -5.65      13.58       7.49
C      -6.56      11.46       7.18
C      -6.35      10.05       7.47
C      -6.30       7.98       7.56
C      -6.39       6.55       7.40
C      -6.73       4.53       6.81
S      -6.46       0.64       7.40
S      -2.20       9.24       9.73
N      -5.77      -2.88       8.35
N      -3.05      -2.38       9.41
N      -3.38       0.15       8.90
N      -3.42       1.49       8.84
N      -3.21       4.08       9.14
N      -2.99       5.37       9.52
