23

Zn      21.32      17.68       6.90
O      20.39      19.24       2.61
Zn      20.93      19.77       4.42
C      20.11      18.74       9.36
O      21.08      15.72       6.83
Zn      18.84      17.29       4.81
O      19.37      15.48       5.35
O      22.89      19.70       4.66
O      23.13      18.22       6.37
C      20.21      15.04       6.20
Zn      18.90      19.71       6.84
C      19.87      22.23       5.63
O      20.03      18.58       5.71
C      23.57      19.07       5.53
O      21.03      18.02       8.83
O      19.34      19.54       8.73
O      20.59      21.70       4.71
C      16.38      18.50       5.87
O      19.07      21.60       6.40
O      16.91      17.58       5.15
O      17.01      19.27       6.67
O      18.91      17.53       2.85
C      19.54      18.40       2.17
