23

Zn       6.44       7.32       8.52
Zn       3.77       6.68      10.33
Zn       3.76       8.82       8.09
Zn       5.51       9.29      10.85
C       4.18       7.83      13.05
C       5.79       8.55       5.93
C       5.51       4.55       9.18
C       3.76      11.33       9.56
C       1.52       7.08       8.59
C       8.33       8.60      10.31
O       4.89       8.03       9.48
O       1.86       6.80       9.82
O       7.46       9.37      10.84
O       2.37       7.46       7.71
O       8.09       7.65       9.49
O       6.05       5.37       8.34
O       4.69      11.01      10.37
O       3.65       7.01      12.25
O       4.62       8.94       6.33
O       5.01       8.77      12.71
O       6.64       7.97       6.68
O       4.64       4.92      10.05
O       3.18      10.58       8.71
