36

Zn       7.61      11.54       8.77
Zn      10.17      15.35       8.70
Zn      10.14      12.66      10.52
C       9.27      10.28      12.34
Zn       7.68      14.25       6.90
C      10.01      13.24       5.23
C      11.70      13.95       6.47
N       8.02      10.59      10.55
N       8.96      14.18      11.05
N       6.69      14.29       8.64
N       8.97      15.31      10.30
N       6.69      13.18       9.42
N       8.08      16.27       6.80
N       9.07      11.09      11.28
N       6.53      11.52       7.02
N      11.86      14.93       9.78
N      10.51      11.67       8.81
N       9.52      13.70       6.39
N      10.56      14.14       7.16
N       9.45      11.24       8.08
N       6.59      12.64       6.23
N      11.85      13.79      10.56
N       9.13      16.70       7.57
C       7.59       9.47      11.17
C       9.86      10.23       7.29
C       5.76      12.47       5.19
C       9.13      18.05       7.56
C      13.10      13.61      11.03
C       8.43      14.46      12.26
C       5.60      15.02       8.95
C       8.44      16.31      11.04
C       5.65      10.66       6.45
C       5.61      13.22      10.22
C      13.11      15.43       9.78
C       7.45      17.36       6.32
C      11.58      10.93       8.49
