18

Al       0.94       4.96       5.99
O       3.77       3.70       4.62
Al       4.33       4.97       5.97
O       3.77       3.79       7.35
O       0.39       6.23       7.33
O       0.38       6.14       4.60
O       1.49       3.78       7.39
O       1.49       3.68       4.64
O      -1.90       6.15       4.56
O      -1.90       6.25       7.32
H       2.62       6.61       5.44
H      -0.77       3.32       6.52
O       2.63       5.77       5.93
C       2.64       3.44       7.83
O      -0.76       4.15       6.03
C       2.63       3.37       4.17
C      -0.75       6.49       4.13
C      -0.76       6.56       7.79
