20

Zn       9.77      10.44       9.88
Zn       9.59       7.67       9.88
C       9.98       9.01      12.48
C      10.90      13.07       9.05
C       9.37       9.10       7.27
C       8.46       5.03      10.68
C       7.08       9.33      10.11
C      12.26       8.78       9.43
C       9.30      13.24      10.71
C      10.06       4.88       9.00
N      10.03      12.48       9.88
N       9.33       5.63       9.85
O      10.02      10.15      11.90
O       9.36       7.96       7.84
O       9.90       7.88      11.90
O       9.42      10.23       7.85
O       7.72      10.43      10.17
O      11.64       7.67       9.52
O       7.61       8.17      10.14
O      11.73       9.94       9.49
