23

Zn      26.14       8.42      16.27
Zn      27.82       7.41      13.78
Zn      27.90       5.69      16.45
Zn      29.41       8.54      16.26
C      25.25       8.87      13.52
C      27.85       4.46      13.77
C      25.28       6.10      17.84
C      30.42       6.19      17.84
C      27.73      10.57      17.59
C      30.38       8.89      13.52
O      27.81       7.52      15.74
O      25.01       9.02      14.77
O      27.81       5.57      13.13
O      26.30       5.41      17.54
O      26.27       8.30      13.02
O      25.02       7.29      17.44
O      27.90       4.31      15.04
O      29.48       5.37      17.57
O      28.90      10.14      17.28
O      30.51       7.39      17.41
O      26.61      10.05      17.29
O      29.41       8.24      13.02
O      30.56       9.13      14.77
