62

Hf       6.51       9.69      32.66
Hf       6.60       9.61      36.17
Hf       8.95       7.18      32.43
Hf       9.08       7.13      35.99
Hf       9.55      10.16      34.30
Hf       6.01       6.66      34.33
H       4.43       9.07      34.33
H       9.24       9.74      37.10
H       8.41       5.05      34.30
H       9.04       9.70      31.38
H       7.16      10.03      38.77
H       7.95       8.22      38.32
H      11.34       5.74      35.90
H      10.58       5.57      34.01
H       8.50       6.83      29.87
H       6.52      10.75      30.06
H       5.15      11.97      32.74
H       4.98      11.25      34.59
H      11.33       5.95      32.60
H       5.58       9.47      30.13
H       4.19      11.04      36.02
H       8.33       6.66      38.55
O       7.29      11.66      31.94
O       9.26      12.00      33.02
O       4.66       8.79      36.87
O       4.28       6.85      35.75
O       7.45      11.54      36.84
O       9.35      11.94      35.64
O       4.72       8.65      31.69
O       4.20       6.88      33.01
O       4.99      11.10      33.13
O       6.47       9.82      30.34
O       5.07      11.21      35.65
O       6.92       9.27      38.23
O       7.49      10.22      34.37
O       5.37       8.85      34.34
O       7.93       5.35      31.69
O       6.10       4.92      32.97
C       8.31      12.37      32.26
C       3.95       7.78      36.55
O      11.38       9.89      35.59
C       6.98       4.61      32.10
O      11.04       7.97      32.02
O       8.07       5.34      36.91
O       6.21       4.89      35.68
C       8.41      12.28      36.45
C      11.70       9.02      32.26
C       3.93       7.73      32.10
C      11.73       8.93      36.36
C       7.11       4.59      36.53
O      10.46       5.62      35.49
O       8.71       7.49      38.21
O      11.29      10.02      32.96
O      10.49       5.61      32.96
O       9.00       7.43      30.45
O       8.20       6.00      34.27
O       9.53       8.14      34.26
O       6.99       7.68      32.86
O       8.84       9.35      36.31
O       8.68       9.41      32.24
O       7.05       7.66      35.78
O      11.03       7.91      36.66
