10

Al       0.05      16.87       5.84
O      -1.02      16.32       7.33
O      -1.02      15.85       4.63
O       1.15      15.31       5.66
O      -1.02      18.43       5.57
O       1.15      17.81       4.58
O       1.15      17.50       7.29
C      -2.01      16.91       7.89
C      -2.01      18.62       4.79
C      -2.01      15.08       4.86
