14

O      15.03       9.80       1.35
O      17.70       6.86      -1.35
Zn      17.64       8.34       0.01
Zn      15.08       8.32      -0.01
C      16.16      10.21       1.77
C      16.56       6.45      -1.77
C      16.38       6.54       1.90
C      16.34      10.12      -1.90
O      17.30       9.79       1.36
O      15.42       6.87      -1.36
O      15.25       6.95       1.48
O      17.47       9.70      -1.48
O      17.52       6.96       1.51
O      15.20       9.70      -1.51
