23

Zn      11.41      -0.01      14.03
O      12.53      -1.59      13.69
O       8.22      -2.70      12.05
Zn       9.82      -1.60      11.73
Zn       8.21       0.00      14.03
O       7.09       1.58      13.70
Zn       9.81       1.60      11.73
O      12.51       1.59      13.71
O      11.39      -2.73      12.07
O       8.23       2.72      12.07
O       7.11      -1.59      13.72
C       9.81      -0.00       9.26
C       9.81      -0.00      16.51
C      12.35       2.54      12.88
C      12.36      -2.55      12.88
C       7.27      -2.54      12.88
C       7.26       2.55      12.88
O       9.81      -0.00      12.88
O       9.85      -1.14       9.82
O       8.67       0.04      15.94
O       9.78       1.14       9.83
O      10.95      -0.04      15.94
O      11.40       2.70      12.05
