24

Al       6.06      -0.84      15.41
Al       7.66      -3.57      14.84
Al       4.65      -3.67      14.84
O       4.69      -1.27      16.79
O       7.37      -1.19      16.86
O       7.30      -4.69      13.35
O       8.69      -2.94      16.26
O       7.35      -5.06      15.98
O       5.09      -5.15      15.95
O       3.56      -3.18      16.26
O       4.77      -0.68      13.98
O       7.44      -0.62      14.03
O       8.58      -2.54      13.61
O       5.03      -4.74      13.33
O       3.68      -2.64      13.64
O       6.13      -2.72      15.03
O       6.00       0.88      15.75
H       6.09       1.11      16.68
C       8.23      -2.09      17.10
C       6.23      -5.42      16.48
C       3.92      -2.23      17.06
C       8.17      -1.35      13.30
C       6.17      -4.86      12.76
C       4.06      -1.46      13.28
