24

Zn       5.26       1.69       0.81
Zn       0.76      -1.69      -0.81
H       4.11       3.01       2.72
H      -0.39      -3.01      -2.72
H       3.98       1.42       3.05
H      -0.52      -1.42      -3.05
C       6.12      -1.19       1.26
C       1.62       1.19      -1.26
C       7.61       0.01       0.23
C       3.11      -0.01      -0.23
C       7.04       3.85       0.16
C       2.54      -3.85      -0.16
C       7.13      -2.03       0.86
C       2.63       2.03      -0.86
C       5.64       2.26       3.82
C       1.14      -2.26      -3.82
N       4.66       2.13       2.73
N       0.17      -2.13      -2.73
N       8.07      -1.26       0.19
N       3.58       1.26      -0.19
N       6.43       0.10       0.87
N       1.93      -0.10      -0.87
O       5.84       3.40       0.05
O       1.34      -3.40      -0.05
