13

Al       0.11       6.97       4.03
O      -0.97       8.40       4.60
O      -0.97       6.76       2.50
O      -0.97       5.76       4.97
P      -1.72       9.63       4.17
P      -1.72       5.77       1.65
P      -1.72       5.51       6.26
P       2.34       8.71       2.24
P       2.34       4.55       3.41
P       2.34       7.65       6.43
O       1.18       8.19       3.05
O       1.18       5.52       3.46
O       1.18       7.21       5.57
