23

Zn      -3.06      12.54       8.27
Zn      -6.27      12.54       8.27
Zn      -4.66      13.47       5.66
Zn      -4.66      15.32       8.27
C      -4.66      10.51       9.71
C      -7.23      11.99       5.53
C      -2.10      11.99       5.53
C      -4.66      16.42       5.53
C      -2.10      14.95       9.71
C      -7.23      14.95       9.71
O      -4.66      13.47       7.62
O      -3.54      10.99       9.37
O      -7.37      11.90       6.79
O      -3.08      12.55       4.95
O      -5.79      10.99       9.37
O      -1.96      11.90       6.79
O      -6.25      12.55       4.95
O      -4.66      15.29       4.95
O      -3.08      15.68       9.37
O      -4.66      16.59       6.79
O      -1.96      13.73       9.37
O      -7.37      13.73       9.37
O      -6.25      15.68       9.37
