23

Zn       2.85       7.94       8.37
Zn       4.99      10.28       8.72
Zn       5.03       7.73      10.72
Zn       2.75       9.88      10.95
C       3.38      12.50       9.83
C       4.27       5.46       9.10
C       4.25       9.20       6.10
C       3.81       8.41      13.24
C       7.37       9.46      10.20
C       0.37       8.72       9.67
O       3.92       8.96       9.68
O       6.82      10.33       9.45
O       0.94       9.24      10.69
O       6.84       8.49      10.83
O       0.95       8.16       8.68
O       3.29       8.46       6.54
O       3.31       9.50      12.81
O       4.22      12.08       8.98
O       5.18       6.01       9.79
O       2.82      11.84      10.77
O       3.27       6.00       8.53
O       5.04       9.89       6.81
O       4.36       7.49      12.55
