23

Zn      25.33      16.68      12.00
Zn      28.50      16.70      11.95
Zn      26.84      13.88      11.99
Zn      26.92      15.73       9.36
O      25.82      18.18      13.17
O      26.99      13.89       8.67
O      29.65      17.29      10.49
C      29.46      17.24       9.22
C      24.35      14.31      13.48
C      26.97      18.68      13.46
C      26.92      12.76       9.27
C      29.44      14.25      13.36
C      24.39      17.24       9.25
O      25.34      13.55      13.20
O      28.47      16.70       8.62
O      24.17      15.50      13.06
O      28.10      18.24      13.08
O      26.83      12.57      10.53
O      26.92      15.72      11.33
O      29.64      15.44      13.01
O      25.30      16.58       8.64
O      28.49      13.46      13.06
O      24.29      17.42      10.51
