20

Cu       4.16       6.68       0.00
Cu       2.01       7.97      -0.00
O       4.72       7.92       1.43
O       1.45       6.73       1.43
O       1.45       6.73      -1.43
O       4.72       7.92      -1.43
O       2.81       9.14       1.41
O       3.36       5.51       1.41
O       3.36       5.51      -1.41
O       2.81       9.14      -1.41
O       5.97       5.24       0.00
O       0.20       9.41      -0.00
H       5.70       4.71       0.77
H       0.46       9.94       0.77
H       0.46       9.94      -0.77
H       5.70       4.71      -0.77
C       3.96       8.84       1.87
C       2.21       5.80       1.87
C       2.21       5.80      -1.87
C       3.96       8.84      -1.87
