11

Cu       0.00      -0.00      10.66
O      -1.82      -0.43      10.07
O       1.82       0.43      11.26
C       0.63      -2.11      12.67
C      -1.54      -1.34      12.68
C       1.96       1.21      12.29
N       0.30       1.26       9.15
N      -0.30      -1.27      12.18
C      -0.63       2.11       8.66
C       1.54       1.33       8.65
C      -1.96      -1.21       9.04
