24

Al       8.66       5.37      13.79
Al       5.49       4.84      13.70
Al       7.31       2.45      13.70
O       7.76       6.29      15.28
O       4.70       3.81      15.10
O       8.47       2.11      15.12
O       9.41       4.19      15.17
O       5.51       6.20      14.97
O       5.97       1.92      14.95
O       7.77       6.48      12.42
O       4.64       3.70      12.45
O       8.64       2.16      12.45
O       9.31       4.32      12.25
O       5.56       6.03      12.28
O       6.13       2.01      12.29
O       7.13       4.21      13.75
H      10.30       6.89      13.08
C       9.14       3.06      15.67
C       6.57       6.46      15.65
C       5.14       2.69      15.54
O      10.08       6.38      13.87
C       9.13       3.16      11.78
C       6.68       6.44      11.79
C       5.22       2.76      11.80
