20

Zn       0.45      11.15      16.53
Zn       2.72      12.87      16.61
H      -1.95      10.53      17.12
H       5.12      13.48      16.02
H      -1.86      10.70      15.61
H       5.04      13.32      17.54
C       2.54      10.30      18.36
C       0.63      13.72      14.79
C       2.55      10.69      14.49
C       0.62      13.33      18.65
O       1.36      10.03      17.97
O       1.81      13.99      15.18
O       3.28      11.23      17.86
O      -0.11      12.79      15.29
O       3.30      11.58      15.03
O      -0.13      12.43      18.12
O       1.39      10.38      14.90
O       1.78      13.63      18.25
O      -1.36      10.29      16.36
O       4.53      13.73      16.79
