33

Mg       4.96      -4.61       8.00
Mg       5.49      -5.86      11.21
Mg       4.42      -3.36       4.78
H       7.86      -6.23      11.51
C       2.81      -5.61       5.81
H       2.06      -3.00       4.48
C       7.10      -3.62      10.18
H       7.42      -7.41      12.45
H       2.49      -1.81       3.55
O       5.22      -6.38       9.20
H       4.38      -6.02      13.54
O       4.69      -2.85       6.80
H       5.53      -3.21       2.46
O       4.42      -7.60      10.87
H       5.44      -4.90      13.63
O       5.50      -1.63       5.12
O       6.38      -5.38       6.72
H       4.48      -4.32       2.37
O       3.54      -3.85       9.28
O       5.98      -4.59       4.63
O       3.93      -4.64      11.36
O       3.41      -5.59       6.92
O       6.50      -3.63       9.07
O       2.98      -4.72       4.88
O       6.94      -4.51      11.11
O       7.32      -7.05      11.55
O       2.59      -2.17       4.45
O       5.33      -5.85      13.40
O       4.58      -3.38       2.59
C       4.61      -7.43       9.62
C       5.31      -1.79       6.37
C       6.63      -5.30       5.48
C       3.29      -3.93      10.51
