24

Al      11.49       8.85      14.26
Al      13.21       6.15      14.20
Al      14.69       8.75      14.21
O      10.87       7.57      15.61
O      10.97       7.73      12.69
O      14.47       5.81      12.81
O      14.51       9.96      12.80
O      12.24      10.09      12.89
O      14.60       5.81      15.44
O      11.95       5.69      12.91
O      15.68       7.74      12.93
O      13.14       7.91      14.21
O      14.49      10.11      15.44
O      12.23       9.91      15.74
O      12.07       5.63      15.57
O      15.64       7.83      15.56
O       9.95       9.68      14.31
H       9.70      10.16      13.51
C      13.38      10.31      16.08
C      11.23       6.47      16.10
C      15.39       6.65      16.00
C      13.35      10.25      12.32
C      11.30       6.59      12.25
C      15.31       6.66      12.35
