23

Zn      18.57       7.36       8.86
Zn      17.07       4.51       8.68
Zn      18.74       5.51       6.19
Zn      20.26       4.70       8.87
C      15.96       6.83      10.14
C      16.21       3.95       5.88
C      18.65       8.48       6.12
C      21.35       4.15       6.18
C      21.11       7.10      10.41
C      18.69       2.54      10.16
O      18.65       5.54       8.15
O      16.89       7.67       9.85
O      15.99       3.92       7.15
O      18.64       7.35       5.52
O      15.90       5.61       9.81
O      18.65       8.67       7.39
O      17.27       4.49       5.38
O      20.41       4.72       5.52
O      21.34       5.92       9.95
O      21.42       4.02       7.44
O      20.04       7.76      10.10
O      17.54       2.89       9.70
O      19.80       3.15       9.99
