14

O       5.14       1.97      33.86
O       2.89       2.13      33.95
Zn       2.08       0.11      33.98
Zn       4.72       0.08      34.02
O       3.98       0.24      35.92
O       1.74      -0.01      35.86
C       4.01      -2.52      34.01
C       2.83       0.10      31.48
C       4.05       2.69      33.89
C       2.86       0.07      36.50
O       2.86      -1.94      34.02
O       5.12      -1.81      34.06
O       3.92      -0.07      32.11
O       1.69       0.21      32.09
