11

N      -3.95       3.35       6.28
Zn      -2.59       4.93       6.19
C      -2.14       5.11       9.05
N      -4.35       5.98       5.82
O      -1.60       4.99       7.89
C      -5.46       5.20       5.83
C      -0.79       5.66       4.55
C      -5.20       3.80       6.10
C      -4.45       7.27       5.49
C      -4.01       1.98       6.37
O      -1.15       4.46       4.89
