10

Al       3.88       8.59       9.92
C       5.91       8.62       7.87
C       5.91      10.36      10.97
C       5.91       6.80      10.93
O       4.93       7.59      11.16
O       4.93       8.02       8.43
O       4.93      10.17      10.17
O       2.81       7.00      10.04
O       2.81       9.49      11.24
O       2.81       9.28       8.48
