18

Al       5.53       4.53       4.42
Al       2.23       4.53       4.43
O       2.78       3.20       5.70
O       2.71       3.44       2.95
O       4.96       3.27       3.11
O       5.04       3.35       5.86
H       3.89       6.24       4.89
O       6.04       5.69       2.97
H       7.20       2.89       4.95
O       6.11       5.87       5.73
C       3.84       3.01       2.56
C       3.90       2.93       6.26
O       3.88       5.36       4.47
O       8.38       5.69       5.92
C       7.23       6.13       6.27
C       7.18       6.14       2.64
O       7.20       3.73       4.46
O       8.30       5.88       3.19
