13

C       3.98      11.45      15.79
Cd       4.14      14.55      14.55
O       4.97      14.33      16.87
C       6.13      14.19      16.38
N       4.66      14.75      12.30
N       3.62      12.30      14.75
O       1.89      15.13      14.28
C       5.71      14.14      11.75
O       3.31      16.87      14.33
C       2.57      11.75      14.14
O       6.38      14.28      15.13
C       2.14      16.38      14.19
C       4.29      15.78      11.45
