14

Zn      21.80      21.80      16.68
Zn      21.80      21.80      19.21
O      23.80      22.07      19.05
O      21.52      23.79      19.05
O      19.80      21.52      19.05
O      22.07      19.80      19.05
O      23.80      21.52      16.84
O      21.53      19.80      16.84
O      19.80      22.07      16.84
O      22.07      23.79      16.84
C      24.38      21.80      17.95
C      19.21      21.80      17.94
C      21.80      19.21      17.95
C      21.80      24.38      17.94
