54

Zr      20.83       6.54      14.18
Zr      17.29       4.49      17.07
Zr      20.83       4.49      17.07
Zr      17.29       6.54      14.18
Zr      19.06       3.48      14.19
Zr      19.06       7.56      17.07
H      21.84       3.91      14.49
H      16.28       3.91      14.49
H      19.06       5.52      19.03
H      19.06       8.73      14.49
O      21.54       5.40      12.41
O      16.57       2.44      16.59
O      16.50       5.68      18.79
O      21.62       8.55      14.73
O      22.98       4.90      16.59
O      17.92       7.73      12.40
O      15.14       6.22      14.73
O      20.20       3.21      18.79
O      20.40       1.79      14.73
O      20.48       7.65      18.79
O      17.64       9.21      16.59
O      17.71       3.43      12.41
O      21.62       5.68      18.79
O      16.50       8.55      14.73
O      16.57       5.40      12.41
O      21.54       2.44      16.59
O      22.98       6.21      14.73
O      17.92       3.21      18.79
O      15.14       4.90      16.59
O      20.20       7.74      12.40
O      20.48       9.21      16.59
O      20.40       3.43      12.41
O      17.71       1.78      14.73
O      17.64       7.65      18.79
O      19.06       7.81      14.81
O      19.06       5.51      18.07
O      17.07       4.37      14.82
O      21.05       4.37      14.82
O      19.06       3.82      16.23
O      19.06       5.52      13.83
O      17.59       6.36      16.23
O      20.53       6.36      16.23
C      21.26       4.24      11.93
C      16.85       1.60      15.66
C      16.78       6.83      19.27
C      21.34       9.39      15.66
C      23.56       5.56      15.66
C      19.06       8.07      11.92
C      14.56       5.56      15.66
C      19.06       2.87      19.27
C      21.26       1.60      15.66
C      21.34       6.83      19.27
C      16.78       9.39      15.66
C      16.85       4.24      11.93
