23

Zn      16.56      16.58      22.50
Zn      18.16      15.73      25.12
Zn      16.44      18.40      25.16
Zn      14.94      15.54      24.97
C      19.19      15.24      22.41
C      18.99      18.12      26.69
C      16.48      19.53      22.43
C      13.83      17.87      26.44
C      14.07      14.99      22.18
C      16.60      13.57      26.42
O      16.52      16.57      24.45
O      18.23      15.82      21.81
O      19.21      16.94      26.22
O      16.51      19.72      23.70
O      19.33      15.08      23.67
O      16.43      18.41      21.82
O      17.92      18.79      26.38
O      14.76      18.70      26.15
O      13.85      14.96      23.45
O      13.77      16.64      26.10
O      15.12      15.54      21.68
O      17.71      14.16      26.21
O      15.44      13.93      26.00
