24

Al       2.24       0.57      27.22
Al       3.77       3.41      27.22
Al       5.45       0.97      27.20
C       1.87       2.95      29.09
C       5.84       2.94      29.21
C       4.20      -0.62      29.10
C       1.89       2.80      25.23
C       6.05       3.26      25.55
C       4.24      -0.51      25.21
O       6.27       1.87      28.66
O       5.29      -0.44      28.42
O       3.14      -0.53      25.83
O       1.55       1.71      25.78
O       2.64       3.71      25.77
O       5.11       3.97      26.06
O       6.42       2.14      26.06
O       5.37      -0.14      25.71
O       3.83       1.65      27.22
O       3.03      -0.44      28.68
O       1.58       1.80      28.66
O       2.47       3.89      28.43
O       4.99       3.75      28.69
O       0.80      -0.43      27.26
H       0.18      -0.27      26.55
