20

Zn       4.58      10.61       9.69
Zn       4.59       7.83       9.63
C       4.78       9.25       7.09
C       7.18       9.19       9.65
C       4.75       9.23      12.23
C       2.01       9.19       9.67
C       3.92      13.35      10.61
C       5.39       5.11       8.75
C       5.37      13.31       8.80
C       3.86       5.10      10.50
N       4.63      12.65       9.71
N       4.61       5.79       9.62
O       5.05      10.34       7.70
O       5.01       8.14      11.62
O       4.26      10.28      11.70
O       4.28       8.21       7.63
O       6.61      10.26      10.04
O       2.57       8.09       9.99
O       2.57      10.28       9.36
O       6.62       8.12       9.26
