20

Zn       7.17       6.34      11.93
Zn       4.40       6.30      11.93
C       5.70       8.93      11.99
C       5.83       6.31      14.58
C       5.78       3.69      11.92
C       5.76       6.35       9.30
C      10.05       5.68      11.10
C       1.53       6.99      12.75
S      10.06       7.29      13.06
S       1.50       5.38      10.83
N       9.25       6.36      11.92
N       2.32       6.30      11.95
O       6.84       8.35      12.00
O       4.56       8.35      11.96
O       4.69       6.30      13.97
O       6.95       6.30      13.99
O       4.64       4.26      11.92
O       6.91       4.30      11.89
O       6.90       6.39       9.87
O       4.63       6.30       9.89
