19

Fe       6.31       0.29      11.76
C       8.90      -1.01      10.67
C       3.76       1.44      13.07
C       6.66       0.85      14.95
C       5.95      -2.79      11.27
C       6.04      -0.40       8.90
C       6.69       3.13      12.43
C       8.11      -0.79      14.21
C       4.56      -1.99      12.94
C       4.61       1.28       9.61
C       8.06       2.40      10.72
S      10.18      -1.76      10.00
S       2.52       2.10      13.87
N       7.12       0.08      13.95
N       5.52      -1.76      12.02
N       5.60       0.40       9.91
N       7.08       2.12      11.61
N       7.95      -0.49      11.15
N       4.70       0.97      12.51
