36

Zn       5.36       9.02       7.65
Zn       8.01      13.09       7.89
Zn       7.94      10.11       9.47
Zn       5.46      11.94       5.88
C       4.11       9.78      10.39
C       6.65       6.29       8.55
C       7.07      10.11       4.10
C       5.63      14.35       9.16
C      10.09       9.62       7.41
C       9.39      11.90      11.63
C       2.55      11.00       5.37
C       9.42      13.84      10.56
C       2.49       9.09       6.49
C       3.97      13.54       7.93
C       5.72      11.07      11.22
C       7.11       8.27       5.35
C      10.07      11.55       6.32
C       8.29       7.07       9.82
C       6.77      14.19       4.18
C       8.39      15.05       5.42
N       5.07       9.93       9.45
N       8.85      11.73      10.40
N       3.77      10.76       5.87
N       8.86      12.90       9.75
N       3.74       9.57       6.57
N       5.08      12.84       7.66
N       6.06      10.71       9.97
N       6.67       9.29       6.11
N       9.01      11.52       7.14
N       7.55       8.11       9.38
N       6.78      13.55       5.36
N       7.78      14.07       6.11
N       6.54       7.62       8.59
N       6.66      10.43       5.34
N       9.02      10.33       7.81
N       6.10      13.34       8.41
