25

Cd       9.81      11.64       1.43
Cd       9.24      18.36      -1.43
Cd       9.52      15.00      -0.00
C      11.57      12.66      -1.08
C       7.47      17.34       1.08
C       9.58      13.84       3.08
C       9.46      16.16      -3.08
C       7.67      12.08      -0.39
C      11.37      17.92       0.39
O      10.26      14.01       2.00
O       8.78      15.98      -2.00
O       8.11      13.19       0.07
O      10.93      16.81      -0.07
O       8.10      10.96       0.05
O      10.94      19.04      -0.05
O       9.07      12.72       3.38
O       9.97      17.28      -3.38
O      11.17      11.69      -0.36
O       7.87      18.31       0.36
O      10.20       9.57       2.36
O       8.85      20.43      -2.36
O      11.11      13.85      -1.12
O       7.93      16.15       1.12
C      11.32       9.86       2.91
C       7.72      20.14      -2.91
