12

O       4.52       6.65       5.42
Zn       3.96       4.71       5.49
O       3.93       4.58       3.46
O       4.51       2.60       5.31
O       4.33       4.49       7.47
C       5.60       7.21       5.06
C       4.96       4.37       2.75
C       5.57       1.94       5.17
C       5.53       4.57       7.90
C       1.58       3.19       6.53
N       1.92       4.38       5.76
N       0.96       5.01       5.31
