48

N       5.87       0.31       3.93
N       6.59       6.20       0.50
Cu       6.39       4.63       1.76
Cu       6.08       8.39       4.85
Cu       6.39       5.30       8.60
Cu       6.07       1.54       5.52
N       5.88       9.62       6.44
N       6.59       3.73       9.87
C       7.82       6.68       0.21
N       7.78       3.30       0.64
C       5.50       6.81       0.02
N       4.67       9.50       3.51
N       7.78       6.63       9.73
N       4.67       0.43       6.85
C       4.65       0.07       3.42
C       6.97      -0.12       3.28
C       7.81       3.25      10.15
O       4.81       6.02       9.56
O       5.95       6.43       7.05
C       5.49       3.13      10.34
O       7.95       5.41       2.80
O       6.52       6.85       3.70
O       4.52       7.33       5.61
O       7.66       9.35       4.14
O       4.81       3.91       0.80
O       5.95       3.50       3.32
C       4.65       9.86       6.94
O       7.95       4.52       7.56
O       6.52       3.08       6.67
O       4.52       2.60       4.76
C       6.97      10.05       7.08
O       7.66       0.58       6.22
C       3.77       6.49       8.95
C       4.76       6.65       6.65
C       8.86       2.77       1.22
C       7.62       3.14      -0.69
C       7.71       6.45       3.49
C       3.61       8.87       2.99
C       4.82      10.82       3.27
C       8.71       8.75       3.68
C       3.77       3.44       1.41
C       4.76       3.28       3.71
C       8.86       7.16       9.14
C       7.63       6.79      11.05
C       7.71       3.48       6.88
C       3.61       1.06       7.38
C       4.82      -0.88       7.10
C       8.70       1.18       6.68
