18

O       2.18      13.17       5.89
Mg       3.04      13.70       9.11
O       3.74      14.03       7.23
Mg      -1.52      15.11       7.96
O      -0.61      14.49       6.25
Mg       0.76      13.42       7.31
C      -3.46      16.68       9.71
C       1.11      11.41       9.59
O      -2.38      12.59      10.03
C       1.09      16.10       8.75
C      -1.19      12.52       9.57
O      -0.82      13.32       8.62
O       1.67      12.24       8.70
C      -1.18      14.14       5.08
O      -0.10      16.47       8.46
O       1.46      14.88       8.54
O      -2.90      15.49       9.43
C       3.37      13.60       6.06
