25

Zn      15.85       4.00       1.91
Zn      18.56       3.17       0.40
Zn      14.15       4.20       4.62
O      12.60       4.45       3.49
O      17.94       4.29      -1.06
O      13.81       4.15       1.59
O      16.12       4.98       0.10
C      20.76       1.25       0.18
C      14.17       4.71       7.50
C      21.35       3.37      -0.57
C      15.18       1.78       4.32
C      12.42       3.32       6.86
C      19.08       4.60       2.56
C      16.54       1.16       0.80
C      15.98       6.32       4.00
C      12.73       4.35       2.21
C      16.87       4.99      -0.91
N      20.44       2.54      -0.03
N      13.51       4.04       6.55
O      17.74       1.35       0.38
O      15.19       5.88       4.90
O      15.75       2.06       1.22
O      16.17       5.81       2.85
O      15.60       2.99       3.98
O      18.13       3.73       2.26
