36

Zn      -1.18      -6.15      12.21
Zn      -1.25      -8.85      10.38
Zn      -3.78     -10.00      12.24
Zn      -3.72      -7.24      14.10
C      -2.93      -5.21       9.97
C       1.63      -7.87       9.80
C      -5.78      -8.33      10.73
C      -5.12      -9.20      16.07
C      -2.53     -10.92       8.43
C       0.35      -7.45      14.48
C      -3.90      -4.16      14.59
C      -1.46     -11.23      13.72
C      -4.14     -11.68       9.63
C      -1.31      -7.91      15.78
C      -2.18      -3.52      13.42
C       0.19     -10.61      12.43
C      -5.86      -6.58      12.03
C      -5.13     -11.00      14.84
C      -2.94      -7.02       8.69
C       1.66      -6.01      10.99
N      -2.51      -6.25      10.71
N       0.39      -7.66      10.27
N      -4.74      -8.38      11.57
N      -4.70      -8.86      14.84
N      -2.38     -10.40       9.65
N      -0.75      -7.45      13.72
N      -3.25      -5.26      14.18
N      -1.90     -10.27      12.88
N      -3.43     -10.89      10.42
N      -1.81      -7.76      14.55
N      -2.16      -4.86      13.43
N      -0.87      -9.89      12.07
N      -4.78      -7.28      12.38
N      -4.70     -10.00      14.06
N      -2.51      -7.36       9.92
N       0.41      -6.50      11.01
