20

Zn       7.83       9.79       9.80
Zn      10.68       9.78       9.80
C       9.27       9.96      12.43
C       9.26       9.63       7.18
C       5.02      10.62       9.01
C      13.49       8.96      10.61
C       5.02       8.97      10.62
C      13.48      10.62       9.01
C       9.24       7.21       9.87
C       9.25      12.36       9.85
N       5.73       9.80       9.82
N      12.78       9.79       9.81
O       8.14       9.88      11.87
O      10.40       9.71       7.74
O       8.13       9.69       7.74
O      10.41       9.87      11.89
O       8.11       7.79       9.83
O      10.38      11.77       9.83
O       8.12      11.78       9.80
O      10.37       7.80       9.82
