18

Al      -2.81       4.65       8.71
Al       0.50       4.64       8.69
H      -1.12       6.20       9.48
H      -4.48       3.04       8.06
O      -1.15       5.26       9.26
O      -4.46       4.01       8.14
O      -3.30       6.46       8.36
O       0.97       4.37      10.55
C      -4.42       7.05       8.48
C      -4.51       4.50      11.11
O      -2.31       2.82       8.99
C      -1.22       2.23       8.68
O       1.09       6.46       8.72
O      -3.41       4.78      10.53
O      -0.09       2.81       8.57
O      -2.20       4.47       6.88
C      -1.11       4.74       6.27
O       0.03       4.91       6.83
