23

Zn       7.22       7.55       8.37
N       6.36       8.89       9.69
N       5.49       7.15       7.29
O       8.18       8.62       7.00
O       9.58       9.25       8.66
O       8.14       6.07       9.10
C       9.26       9.18       7.45
C      10.16       9.77       6.40
H       8.83       9.37       4.77
C       9.80       9.77       5.05
H      10.39      10.27       3.04
H      12.61      11.16       3.73
C      10.68      10.28       4.09
C      11.92      10.78       4.48
H      13.27      11.16       6.12
H      11.68      10.26       7.84
C      12.29      10.78       5.83
C      11.41      10.28       6.78
C       5.78       8.48      10.83
C       6.46      10.21       9.46
C       4.38       6.69       7.89
H       7.55       5.36       9.39
C       5.47       7.29       5.95
