23

Zn       9.00       9.21       8.59
Zn       9.00       7.04      11.00
Zn      11.36       9.16      10.75
Zn      11.09       6.78       8.57
C       9.91       4.44       9.92
C      10.36      11.65       9.52
C       6.53       8.25       9.90
C      13.69       7.81       9.50
C      10.35       8.21      13.35
C       9.94       7.93       6.10
O      10.10       8.04       9.71
O       9.48       7.41      12.85
O      10.60       7.00       6.68
O      11.10       9.01      12.68
O       9.27       8.85       6.67
O       7.09       8.98       9.02
O      13.03       7.04       8.71
O       9.18       5.09      10.74
O      11.19      11.06      10.28
O      10.71       4.91       9.05
O       9.43      11.12       8.81
O       7.09       7.47      10.74
O      13.22       8.64      10.34
