24

Al       1.32       0.89       0.49
Al       4.50       0.99       0.17
Al       3.00       3.58       0.09
C       2.99      -0.59      -1.55
C       4.95       2.85      -1.92
C       0.71       3.25      -1.37
C       3.40      -0.46       2.23
C       5.30       3.30       1.68
C       1.33       3.26       2.33
O       0.47       2.16      -0.77
O       1.89      -0.20      -1.09
O       4.15      -0.40      -1.01
O       5.36       1.81      -1.30
O       4.12       3.72      -1.48
O       1.64       4.09      -1.05
O       0.97       2.09       2.04
O       2.23      -0.27       1.81
O       4.50      -0.19       1.61
O       5.55       2.10       1.30
O       4.47       4.09       1.10
O       1.97       4.09       1.57
O       2.96       1.83       0.25
O      -0.15      -0.03       0.72
H      -0.80       0.01       0.01
