23

O       0.34      14.08       2.59
O       1.17      18.40      -1.83
O       1.56      13.94      -1.93
Zn       1.61      17.00      -0.55
Zn       0.02      14.14      -0.71
Zn      -1.58      16.90      -0.63
Zn       0.01      15.93       1.96
C       0.18      12.94       2.00
C       0.02      18.93      -2.07
C       2.60      14.66      -2.02
C      -2.56      17.32       2.14
C      -2.60      14.50      -2.00
C       2.36      17.69       2.22
O      -2.68      17.49       0.88
O      -1.66      13.73      -1.62
O       1.47      16.96       2.78
O      -2.68      15.76      -1.78
O       2.52      17.87       0.96
O       2.86      15.73      -1.39
O      -1.64      16.64       2.73
O       0.00      12.79       0.75
O      -1.10      18.52      -1.63
O       0.03      15.97       0.01
