18

H       2.84      10.51      21.40
Al       4.54       8.91      22.05
Al       1.20       8.88      22.12
H       6.17       7.26      22.73
O       1.74       7.37      21.06
O       4.00       8.01      23.65
O       5.08      10.41      23.12
O       4.01       7.39      20.97
O       5.08       9.83      20.45
O       1.74       7.97      23.73
O       2.86       9.69      21.91
O       0.67       9.78      20.52
O       0.67      10.40      23.19
O       6.20       8.11      22.26
C       2.89       7.72      24.21
C       2.86       6.93      20.66
C       6.23      10.07      19.96
C       6.20      10.86      23.51
