24

Al       1.82       1.18      28.12
Al       3.42       3.96      28.13
Al       5.03       1.44      28.10
C       1.44       3.49      30.00
C       5.54       3.52      30.00
C       3.79      -0.17      29.96
C       1.47       3.50      26.21
C       5.60       3.57      26.32
C       3.76      -0.06      26.15
O       5.93       2.43      29.45
O       4.92       0.12      29.41
O       2.61       0.16      26.60
O       1.12       2.40      26.74
O       2.25       4.37      26.73
O       4.78       4.38      26.87
O       5.97       2.44      26.80
O       4.88       0.15      26.76
O       3.44       2.19      28.11
H      -0.13       0.13      27.34
O       2.64       0.03      29.48
O       1.21       2.32      29.60
O       2.14       4.39      29.39
O       4.68       4.33      29.51
O       0.37       0.20      28.16
