20

Zn      10.55       9.35       9.48
Zn       7.54       9.36       9.42
C       9.04      11.89      10.05
C       8.95       6.77       9.30
C      13.30       8.47      10.28
C       4.80       8.37       8.86
C      13.31      10.23       8.78
C       4.81      10.31      10.17
C       9.06       9.55       6.91
C       9.01       8.96      12.06
N      12.61       9.35       9.52
N       5.49       9.34       9.50
O      10.14      11.40       9.69
O       7.92       7.38       8.85
O      10.05       7.33       9.57
O       7.92      11.28      10.09
O      10.21       9.40       7.47
O       7.94       8.73      11.37
O      10.11       9.33      11.51
O       7.99       9.83       7.51
