10

Al      -0.00      -3.37       5.83
C       2.06      -5.14       4.81
O       1.09      -2.39       4.60
O       1.09      -2.79       7.30
O       1.09      -4.93       5.61
O      -1.09      -1.81       5.61
O      -1.09      -4.34       4.60
O      -1.09      -3.95       7.30
C       2.06      -1.59       4.81
C       2.06      -3.37       7.88
