18

O       3.91       4.66       6.16
Al       1.13       5.79       7.61
Al       4.43       5.98       7.48
O       1.70       4.57       9.00
O       0.61       6.98       9.07
H       5.94       4.27       8.19
O       1.66       4.49       6.32
C       2.89       4.38       9.49
O       0.57       7.00       6.27
C       2.77       4.19       5.76
O       3.92       4.95       8.99
C       6.17       7.39       5.67
O       2.75       6.74       7.48
C       6.13       7.53       9.38
O       4.98       7.03       6.01
O       5.07       7.37       8.69
O       6.07       5.04       7.61
H       2.61       7.45       6.82
