66

Ti       1.81       0.00      10.63
O       6.06       0.00      14.85
Ti       1.81      -1.73      13.62
Ti      -1.81       0.00      10.63
Ti      -1.81       1.73      13.62
Ti       1.81       1.73      13.62
Ti      -1.81      -1.73      13.62
Ti       4.26       1.77      11.60
Ti       4.26      -1.77      11.60
Ti       7.85      -1.77      11.60
Ti       7.85       1.77      11.60
Ti       4.26       0.00      14.66
C       2.95       2.22       8.89
Ti       7.85       0.00      14.66
C       2.95      -4.35      12.57
C      -2.95      -2.22       8.89
C       9.16       4.35      12.57
C       2.95       2.12      16.42
C      -2.95      -2.12      16.42
C       2.95      -2.12      16.42
C      -2.95       2.22       8.89
C      -2.95       2.12      16.42
C       2.95       4.35      12.57
C       2.95      -2.22       8.89
C       9.16      -4.35      12.57
O       2.14       1.26       9.09
O       2.14      -3.69      13.30
O      -2.14      -1.26       9.09
O      -2.14       3.69      13.30
O       2.14       2.43      15.48
O      -2.14      -2.43      15.48
O       2.14      -2.43      15.48
O      -2.14       1.26       9.09
O      -2.14       2.43      15.48
O       2.14       3.69      13.30
O       2.14      -1.26       9.09
O      -2.14      -3.69      13.30
O       3.90       2.53       9.67
O       3.90      -3.82      11.91
O       8.21      -2.53       9.67
O       8.21       3.82      11.91
O       3.90       1.30      16.29
O       8.21      -1.30      16.29
O       3.90      -1.30      16.29
O       8.21       2.53       9.67
O       8.21       1.30      16.29
O       3.90       3.82      11.91
O       3.90      -2.53       9.67
O       8.21      -3.82      11.91
O       4.05       0.00      10.96
O       4.05      -1.44      13.46
O      -4.05       0.00      10.96
O       8.06       1.44      13.46
O       4.05       1.44      13.46
O       8.06      -1.44      13.46
O      -0.00       0.00      10.58
O      -0.00      -1.77      13.64
O      -0.00       1.77      13.64
O       2.10       1.48      11.77
O       2.10      -1.48      11.77
O      -2.10      -1.48      11.77
O      -2.10       1.48      11.77
O       2.10       0.00      14.34
O      -2.10       0.00      14.34
O       6.06       1.93      11.51
O       6.06      -1.93      11.51
