18

Al       6.88       0.15      24.01
Al       3.54       0.13      23.96
H       5.17       0.90      25.56
H       8.53       0.34      22.25
C       5.26      -1.85      22.64
C       5.16       1.65      22.10
C       8.54       2.17      25.28
C       8.63      -1.39      25.81
O       4.02       1.43      22.63
O       6.36      -1.53      23.24
O       7.52      -0.85      25.51
O       6.28       1.14      22.43
O       7.40       1.79      24.88
O       4.17      -1.22      22.77
O       5.20       0.32      24.79
O       9.65       1.58      25.11
O       9.75      -1.18      25.25
O       8.54       0.03      23.17
