23

Zn       7.65       3.80       8.24
Zn       8.89       6.74       8.56
Zn       9.46       5.10       5.88
Zn      10.80       4.16       8.62
C       6.30       5.96       9.73
C       9.23       8.05       5.94
C       6.97       3.54       5.38
C      11.99       3.62       5.96
C       9.33       1.92       9.80
C      11.37       6.63      10.11
O       9.19       4.94       7.82
O       6.39       4.72       9.45
O       9.04       8.14       7.20
O       7.94       4.26       4.97
O       7.10       6.88       9.34
O       6.73       3.23       6.60
O       9.45       6.97       5.28
O      11.13       4.28       5.28
O      10.40       2.61       9.76
O      11.98       3.45       7.22
O       8.22       2.19       9.24
O      10.21       7.12       9.97
O      11.80       5.53       9.60
