14

Zn      14.56       7.65       0.02
Zn      16.29       9.72       0.02
C      17.16       7.89      -1.72
C      13.70       9.46      -1.74
C      14.45      10.21       1.85
C      16.33       7.20       1.91
O      17.54       9.06      -1.33
O      16.14       7.28      -1.27
O      13.30       8.30      -1.33
O      14.76      10.02      -1.33
O      14.02       9.09       1.41
O      15.47      10.85       1.38
O      15.34       6.53       1.42
O      16.78       8.30       1.46
