13

Zn       2.89      11.77      24.34
C       2.92      13.35      26.89
C       1.87      14.48      23.40
C       0.59      10.29      23.19
N       2.41      13.25      23.08
N       2.42      12.32      26.19
C       2.52      13.24      21.74
C       1.87       8.88      24.23
C       1.51      11.70      27.03
N       4.80      11.22      24.24
C       5.34      10.45      23.28
N       1.77      10.20      23.83
C       5.82      11.46      25.15
