20

Zn       4.44       6.34      23.10
Zn       7.22       6.29      23.04
C       5.94       8.92      23.03
C       5.75       6.33      20.42
C       5.81       3.69      23.07
C       5.91       6.33      25.70
C       1.56       5.69      23.93
C      10.09       6.98      22.25
S       1.55       7.31      22.00
S      10.11       5.37      24.18
N       2.36       6.39      23.13
N       9.29       6.28      23.04
O       4.80       8.35      23.00
O       7.07       8.35      23.07
O       6.86       6.35      21.03
O       4.60       6.29      21.02
O       6.96       4.26      23.04
O       4.69       4.30      23.12
O       4.76       6.39      25.14
O       7.03       6.27      25.11
