20

Zn       7.88       9.96       8.01
Zn       7.68       7.12       7.47
C       7.43       9.03       5.26
C       8.77       4.65       6.25
C       7.41      12.31       9.76
C       6.82       4.29       7.49
C       8.83      12.78       7.96
C       7.89       7.93      10.24
C      10.38       8.34       7.70
C       5.20       8.80       7.99
N       7.71       5.12       6.96
N       8.07      11.92       8.63
O       7.34      10.03       6.05
O       7.54       6.97       9.48
O       7.87       7.88       5.59
O       8.18       9.11       9.87
O       9.85       9.49       7.60
O       5.71       7.80       7.39
O       9.79       7.21       7.70
O       5.80       9.81       8.47
