39

N       8.40       4.85       5.31
Zn      11.04       6.37       4.51
N      12.57       8.53       2.80
Co       8.20       4.73       3.35
Co      11.04       6.37       7.98
N      11.04       4.58       3.24
N      11.04       8.16       5.77
N       9.49       7.27       3.24
N      12.59       5.48       5.77
N      12.59       7.27       3.24
N       9.49       5.48       5.77
Co      11.04       9.65       3.35
Co      13.87       4.73       3.35
Cl       6.44       3.72       2.63
Cl      11.04       6.37      10.14
Cl      11.04      11.69       2.63
Cl      15.64       3.72       2.63
C      10.33       2.90       2.05
C      11.04       9.44       7.54
C      11.04      10.26       6.38
C      11.75       2.90       2.05
C       8.38       8.72       2.05
C      13.69       4.84       7.54
C      14.40       4.43       6.38
C       7.67       7.50       2.05
C      14.40       7.50       2.05
C       8.38       4.84       7.54
C       7.67       4.43       6.38
C      13.69       8.72       2.05
N       9.94       3.96       2.80
N      11.04       8.14       7.11
N      11.04       9.42       5.31
N      12.14       3.96       2.80
N       9.50       8.53       2.80
N      12.57       5.49       7.11
N      13.67       4.85       5.31
N       8.40       6.62       2.80
N      13.67       6.62       2.80
N       9.50       5.49       7.11
