20

Zn      13.83      10.14       9.78
Zn      14.34       7.39       9.87
C      14.08       8.91      12.45
C      14.11       8.60       7.20
C      13.61      13.06       8.96
C      14.57       4.48      10.75
C      12.16      12.45      10.62
C      16.02       5.07       9.08
C      11.53       8.22       9.81
C      16.64       9.32       9.76
N      13.16      12.12       9.77
N      15.02       5.41       9.92
O      13.78      10.00      11.86
O      14.33       7.49       7.79
O      14.37       7.81      11.88
O      13.88       9.71       7.77
O      11.89       9.44       9.82
O      16.28       8.10       9.73
O      12.31       7.21       9.84
O      15.86      10.33       9.83
