23

Zn      12.83       4.85       1.15
Zn      14.27       6.69      -1.15
Zn      15.99       5.26       1.16
Zn      14.61       3.52      -1.16
C      16.67       7.89       0.01
C      12.22       2.24      -0.01
C      14.42       5.07       3.64
C      14.44       5.08      -3.64
C      17.24       2.86      -0.00
C      11.62       7.29       0.00
O      14.42       5.09      -0.00
O      15.83       7.87      -0.95
O      12.04       3.06       0.95
O      15.57       5.15       3.08
O      14.63       3.95      -3.08
O      17.32       3.86       0.79
O      16.29       2.55      -0.79
O      12.58       7.60      -0.79
O      11.54       6.29       0.79
O      13.29       4.97       3.07
O      14.27       6.21      -3.07
O      16.81       7.02       0.93
O      13.10       2.30      -0.93
