23

Zn      20.16       1.63      22.96
Zn      18.56       4.41      22.76
Zn      18.49       2.73      25.50
Zn      16.95       1.66      22.90
O      18.55       2.60      23.53
C      21.12       3.93      21.37
O      21.28       2.73      21.78
O      20.08       1.85      26.24
C      15.97       1.24      25.68
O      21.28       1.05      24.47
O      18.50       4.60      26.12
O      16.91       1.85      26.28
O      18.56       5.78      24.16
O      15.85       1.08      24.42
O      19.70       0.00      21.93
O      16.99       4.73      21.64
O      20.14       4.71      21.64
O      17.41       0.04      21.89
O      15.83       2.77      21.74
C      16.00       3.98      21.35
C      18.53       5.68      25.43
C      21.07       1.24      25.72
C      18.56      -0.46      21.61
