10

Al       0.21       0.00      13.98
O       1.28       0.34      15.55
O       1.28       1.18      12.91
O       1.28      -1.52      13.50
C       2.19      -1.52      12.60
C       2.19      -0.43      15.99
C       2.19       1.96      13.36
O      -0.84       1.60      14.13
O      -0.84      -0.67      12.52
O      -0.84      -0.93      15.30
