23

Zn      12.71      13.96      10.02
Zn      12.81      12.28       7.50
Zn      11.23      15.09       7.29
Zn      14.28      15.25       7.54
C      12.76      11.04      10.16
C      10.46      12.68       5.89
C      10.12      15.39      10.03
C      12.77      17.25       6.03
C      15.06      15.60      10.30
C      15.41      12.86       6.20
O      12.76      14.15       8.09
O      12.59      12.15      10.79
O      10.99      11.91       6.75
O       9.97      15.38       8.75
O      12.95      10.92       8.89
O      11.16      14.97      10.68
O      10.70      13.92       5.75
O      11.64      16.77       6.39
O      14.82      16.21       9.22
O      13.93      16.75       6.34
O      14.53      14.50      10.67
O      14.37      12.10       6.33
O      15.56      14.04       6.69
