23

Zn       7.51       8.98      15.55
Zn       7.33      10.78      18.18
Zn       8.95      11.91      15.66
Zn       5.77      11.72      15.55
O       7.39      10.83      16.22
O       7.53       7.65      17.01
O       8.94      11.56      18.98
O      10.18      10.75      14.69
C       7.39       7.83      18.27
O       9.12       8.73      14.46
C      10.09       9.55      14.27
O       7.23       8.95      18.86
C       5.02       9.33      13.99
C       9.79      12.35      18.45
O       5.91       8.55      14.47
O       5.77      11.75      18.86
C       4.72      12.13      18.25
O       9.84      12.71      17.23
O       8.47      13.42      14.51
C       7.31      13.87      14.23
O       4.93      10.58      14.18
O       6.19      13.39      14.61
O       4.52      12.14      16.98
