10

Al      -0.86      11.70       6.79
O      -1.96      12.87       5.75
O      -1.95      12.02       8.34
O      -1.96      10.22       6.30
O       0.31      13.23       6.78
O       0.31      10.91       5.46
O       0.32      10.94       8.11
C      -3.01      13.54       6.00
C      -3.01      11.47       8.78
C      -3.00      10.09       5.58
