9

Zn      -1.50      12.31       2.04
C      -3.56      10.46       0.88
C      -3.27      10.19       3.17
C      -1.68      14.31       4.29
C      -3.72      13.87       3.28
N      -2.39      13.66       3.36
I       0.44      11.25       3.34
I      -1.41      13.42      -0.25
N      -2.96      10.83       2.02
