18

Al       0.71       7.02       7.96
Al       4.21       7.06       7.96
C       2.48       5.45       6.20
C      -1.04       8.65       9.73
C       2.48       5.49       9.78
C      -1.02       8.55       6.12
O       3.61       5.86       9.32
O       1.33       5.78       6.64
O       0.12       8.19       6.56
O       1.32       5.83       9.35
O       0.09       8.27       9.27
O       3.61       5.84       6.63
O       2.45       7.86       7.95
O      -2.19       8.29       9.30
O      -2.17       8.25       6.59
O      -1.04       6.23       7.98
H       2.44       8.81       8.14
H      -1.06       5.26       7.98
