38

Zn      10.57      -2.06       4.54
Zn      12.86      -3.99       8.31
Zn      13.19      -0.88       6.25
Zn      10.38      -4.83       6.25
C      12.76      -3.30       3.00
C      14.39      -5.62       6.23
C      15.82      -1.00       7.57
C       9.22      -5.77       3.59
C      16.03      -2.78       8.83
C       9.33      -3.90       2.42
C      12.71      -6.11       4.88
C      14.53      -2.22       3.79
C       8.67      -1.19       6.75
C      12.15      -1.77      10.06
C      11.82       1.72       5.16
C       9.76      -6.90       8.50
C      11.26      -6.14       9.93
C      10.37       0.90       3.69
C       8.66      -3.04       7.97
C      11.83       0.01       8.83
N      12.42      -2.72       4.15
N      13.33      -4.87       6.59
N      14.65      -1.69       7.53
N       9.51      -4.76       4.44
N      14.79      -2.78       8.30
N       9.58      -3.60       3.71
N      12.30      -5.18       5.76
N      13.52      -2.07       4.65
N       9.65      -2.00       6.31
N      12.12      -2.15       8.76
N      11.88       0.39       5.23
N      10.45      -5.92       7.91
N      11.39      -5.44       8.80
N      10.96      -0.11       4.33
N       9.64      -3.14       7.06
N      11.95      -1.07       8.00
N      15.88       0.20       6.85
O      14.81       0.58       6.23
