23

Zn      20.05       8.27      23.72
Zn      23.28       8.40      23.88
Zn      21.56       7.29      26.36
Zn      21.80       5.56      23.72
C      21.69       4.33      26.40
O      21.68       7.39      24.40
C      21.66      10.41      22.44
O      24.29       9.04      25.45
C      18.98       8.72      26.45
O      22.81       9.98      22.81
C      19.29       5.86      22.18
O      18.87       8.82      25.18
C      24.40       6.07      22.44
O      19.96       8.16      27.09
C      24.06       8.85      26.69
O      20.52       9.89      22.70
O      24.50       7.29      22.82
O      23.44       5.27      22.68
O      23.10       8.20      27.19
O      21.57       5.45      27.01
O      20.27       5.15      22.56
O      21.79       4.18      25.12
O      19.05       7.07      22.51
