20

Cu      -0.00       7.49       7.88
Cu      -0.00      10.09       7.88
Cu       1.30       8.79       9.60
Cu      -1.30       8.79       9.60
C       0.00       4.73       6.82
C      -0.00      12.85       6.82
C       4.06       8.79      10.66
C      -4.06       8.79      10.66
C      -0.00       6.41       5.22
C      -0.00      11.18       5.22
C       2.38       8.79      12.26
C      -2.39       8.79      12.26
I      -0.00       6.47      10.32
I      -0.00      11.11      10.32
I       2.32       8.79       7.15
I      -2.32       8.79       7.15
N      -0.00       6.04       6.51
N      -0.00      11.54       6.52
N       2.75       8.79      10.96
N      -2.75       8.79      10.96
