10

O      13.39       4.44      20.35
Cd      13.34       2.90      22.20
C      15.53       0.81      22.83
O      12.66       1.34      20.63
O      11.28       1.68      22.37
O      13.61       3.33      24.39
C      11.56       1.12      21.26
C      13.89       4.58      24.30
O      15.56       1.86      22.19
C      12.36       5.12      20.42
