18

Al       1.99      15.30      15.74
O       3.66      16.08      15.71
Al       5.34      15.30      15.74
O       5.87      16.52      14.34
O       5.88      16.58      17.06
O       0.31      14.50      15.74
H       3.67      17.05      15.77
H       0.31      13.56      15.53
C       3.66      13.77      17.61
C       3.67      13.63      13.98
C       0.31      16.89      13.91
C       0.31      16.96      17.48
O       4.81      14.01      14.40
O       2.52      14.10      17.15
O       1.45      16.58      17.05
O       2.53      14.01      14.41
O       1.46      16.52      14.33
O       4.80      14.09      17.14
