23

Zn      18.27      19.48      14.44
Zn      15.08      19.49      14.41
Zn      16.73      22.27      14.40
Zn      16.70      20.47      17.05
C      16.65      17.54      12.88
C      19.33      21.82      13.04
C      19.05      18.72      17.20
C      14.29      21.87      12.81
C      14.07      19.12      17.16
C      16.87      23.42      17.10
O      16.68      20.43      15.08
O      15.51      17.95      13.25
O      17.79      18.00      13.25
O      18.40      22.60      13.42
O      19.48      20.59      13.36
O      18.11      19.32      17.81
O      19.26      18.69      15.94
O      15.28      22.62      13.12
O      14.06      20.69      13.24
O      14.98      19.79      17.74
O      13.97      18.88      15.91
O      16.96      22.31      17.71
O      16.70      23.59      15.85
