15

Cu       9.08      18.10      17.87
Cu      11.71      19.33      19.13
Cu      10.37      16.78      20.46
N      11.00      20.11      17.62
N       9.84      19.59      17.09
N       8.29      16.61      18.61
N       8.84      16.05      19.74
N      11.90      17.48      21.20
N      12.46      18.60      20.65
C       9.50      20.33      16.02
C      11.37      21.16      16.87
C       8.08      14.98      20.09
C       7.20      15.89      18.27
C      13.55      18.93      21.38
C      12.65      17.12      22.27
