20

O       9.44       9.23      23.43
O       7.25       8.64      23.42
O       9.40       6.85      25.15
Zn       9.68       8.88      25.46
Zn       6.92       8.85      25.45
O       9.44       8.58      27.47
O       7.18       6.82      25.65
O       7.22       9.02      27.48
C       8.26      11.47      25.46
C       8.34       8.95      22.86
C       8.30       6.26      25.39
C       8.33       8.80      28.06
C      12.39       9.66      24.56
C      12.40       8.07      26.27
C       4.22       9.65      24.56
C       4.20       8.04      26.25
N      11.74       8.87      25.42
N       4.87       8.84      25.41
O       7.14      10.89      25.25
O       9.36      10.89      25.72
