23

Zn      24.97      17.77      14.03
O      23.90      16.17      14.37
Zn      26.60      19.45      16.15
O      26.64      17.82      15.06
Zn      26.68      16.25      16.24
O      23.80      19.29      14.46
Zn      28.21      17.88      13.87
O      26.72      16.75      18.15
O      25.04      15.17      16.06
O      26.59      19.02      18.07
O      25.36      17.89      12.11
O      28.21      15.12      15.81
O      28.16      20.55      15.77
O      27.64      17.92      11.98
O      29.35      19.46      14.17
O      29.32      16.29      14.20
O      25.02      20.58      15.87
C      24.07      15.25      15.24
C      26.64      17.90      18.68
C      23.99      20.33      15.17
C      29.17      20.42      15.00
C      26.47      17.94      11.47
C      29.19      15.30      15.01
