18

Mg       3.76      22.22      12.14
O       4.51      20.44      12.73
Mg       6.06      20.58      11.37
O       2.36      22.53      13.57
Mg       1.47      20.74      13.18
O       5.18      23.50      12.79
O       6.81      21.99      12.62
C       1.78      20.91      10.14
C       6.38      18.40      13.47
C       4.08      21.50       9.19
C       6.38      23.13      13.04
O       4.66      21.66      10.39
C       4.08      19.51      13.51
C       1.78      23.65      14.02
O       7.48      20.50       9.94
O       2.22      21.11      11.34
O       6.96      19.35      12.73
O       2.89      19.54      13.96
