23

Zn      12.58      14.90       8.77
Zn      11.33      17.77       9.33
Zn      13.23      16.42      11.51
Zn      14.48      17.47       8.78
O      12.91      16.64       9.60
O      10.82      14.81       7.90
O      10.56      18.35      11.04
O      13.13      14.53      12.04
O       9.91      16.85       8.35
O      12.68      13.45      10.08
O      11.89      17.38      12.59
O      14.99      17.10      12.05
O      15.25      16.33       7.38
O      15.90      17.81      10.09
O      13.92      14.51       7.38
O      11.79      19.40       8.33
O      14.02      19.18       7.94
C       9.88      15.67       7.84
C      10.88      18.12      12.27
C      12.91      13.48      11.34
C      15.93      17.61      11.35
C      14.93      15.17       6.92
C      12.91      19.80       7.85
