23

Zn      16.02      16.34      22.33
Zn      17.58      15.47      24.93
Zn      15.70      18.14      24.99
Zn      14.34      15.36      24.90
C      18.63      15.01      22.23
C      18.21      17.82      26.58
C      15.87      19.28      22.31
C      13.15      17.63      26.34
C      13.48      14.88      22.10
C      15.99      13.36      26.24
O      15.93      16.33      24.29
O      17.68      15.60      21.62
O      18.63      16.82      25.94
O      15.91      19.46      23.58
O      18.75      14.85      23.50
O      15.78      18.17      21.70
O      17.00      18.27      26.54
O      14.07      18.47      26.03
O      13.13      15.19      23.30
O      13.11      16.40      26.02
O      14.61      15.15      21.60
O      17.10      13.96      26.08
O      14.84      13.71      25.78
