11

Zn       5.54       7.34      10.26
C       8.20       8.07      11.29
O       6.42       6.14       8.97
C       7.02       6.75       8.00
C       4.51       9.62       8.66
N       6.91       8.48      11.22
C       2.87       8.08       9.23
C       4.06       6.75      12.51
N       4.16       8.49       9.30
C       6.56       9.62      11.86
O       4.66       6.14      11.54
