10

Al       0.03       5.86      10.12
C       2.13       7.89      10.08
O       1.12       7.32       9.59
O       1.13       5.61      11.69
O       1.12       4.62       9.16
O      -1.07       7.32      10.66
O      -1.08       5.56       8.59
O      -1.07       4.64      11.14
C       2.15       4.89      11.93
C       2.08       4.85       8.36
