18

Al       0.81       6.59      10.98
Al       4.14       6.63      11.05
H       2.52       5.05      10.23
H      -0.81       8.25      11.66
C       2.45       7.77      13.15
C       2.48       8.59       9.60
C      -0.88       5.45       8.88
C      -0.86       4.64      12.43
O       3.61       8.14      10.00
O       1.34       7.47      12.60
O       0.27       5.08      12.02
O       1.34       8.12       9.91
O       0.28       5.68       9.37
O       3.60       7.54      12.65
O       2.49       5.81      10.82
O      -1.99       5.74       9.43
O      -0.84       7.40      11.19
O      -2.00       5.12      12.12
