10

Al       0.01      15.09       2.90
C      -1.97      13.32       3.94
C      -1.97      16.87       3.93
C      -1.97      15.08       0.85
O      -1.04      15.74       1.43
O      -1.04      13.49       3.08
O      -1.04      16.04       4.20
O       1.07      14.43       1.44
O       1.07      16.69       3.06
O       1.07      14.15       4.21
