20

Zn       3.26       6.13       6.82
Zn       3.21       3.35       6.55
C       3.54       4.91       4.09
C       5.84       4.86       6.83
C       2.86       0.53       7.50
C       4.62       0.84       6.00
C       2.83       4.70       9.27
C       1.77       8.62       7.25
C       3.52       8.92       5.73
C       0.64       4.56       6.30
N       2.83       8.14       6.62
N       3.57       1.33       6.65
O       3.72       5.96       4.79
O       3.34       3.73       4.55
O       5.26       5.94       7.17
O       5.27       3.74       6.65
O       2.83       5.90       8.82
O       3.01       3.65       8.58
O       1.27       5.65       6.47
O       1.17       3.40       6.33
