11

Zn      -1.58      13.37       5.17
N      -2.79      11.91       4.39
N      -2.80      14.82       5.96
C      -1.11      14.19       2.63
O      -0.40      13.01       6.71
O      -0.40      13.72       3.64
C      -2.52      11.38       3.18
C      -3.94      11.55       5.00
C      -1.10      12.55       7.72
C      -2.52      15.36       7.17
C      -3.94      15.17       5.34
