13

C       2.13      19.11       6.16
C       3.99      16.31       8.22
O       2.73      16.45       8.18
Co       3.22      16.82       5.86
N       4.30      17.24       4.21
C       3.84      18.06       3.24
C       5.51      16.67       4.04
C       3.00      13.90       5.39
O       3.33      19.13       6.55
C       0.98      15.04       5.28
N       2.33      15.07       5.41
O       1.62      18.03       5.66
O       4.69      16.34       7.13
