13

Co       9.45       5.86      16.82
C       8.68       8.22      16.31
C      10.54       6.16      19.11
O       9.93       8.18      16.45
O       9.34       6.55      19.13
C      11.68       5.28      15.04
C       8.82       3.24      18.06
C       7.16       4.04      16.67
N       8.37       4.21      17.24
C       9.66       5.39      13.90
O      11.05       5.66      18.03
N      10.34       5.41      15.07
O       7.98       7.13      16.34
