36

Zn      -6.95       2.53      12.39
Zn      -9.62      -1.30      12.42
Zn      -9.54       1.48      10.72
Zn      -7.00      -0.28      14.05
C      -9.18       3.87      13.98
C      -5.03       0.91      10.74
C      -8.29      -2.27       9.93
C      -8.44       3.63       8.71
C      -6.80      -3.34      14.62
C      -8.62      -4.05      13.58
C      -6.73       4.40       9.87
C      -5.02      -0.98      11.88
C     -10.96      -0.07      14.83
C      -8.28      -0.40       8.76
C     -12.53       0.61      10.22
C      -5.51       1.50      16.10
C     -12.54      -1.32      11.28
C      -5.49       3.41      15.00
C      -9.16       0.61      15.94
C     -10.93       3.15      12.83
N      -8.77       2.88      13.15
N      -8.47      -1.24      10.78
N      -8.45       3.02       9.91
N      -7.46      -2.27      14.16
N      -8.59      -2.71      13.51
N      -7.38       3.50      10.63
N      -6.07      -0.24      12.29
N      -8.46      -0.09      10.06
N      -9.91      -0.10      13.99
N     -11.29       0.38      10.68
N      -5.92       1.26      14.84
N     -11.30      -0.82      11.34
N      -5.91       2.45      14.15
N      -8.80       0.32      14.67
N      -9.85       2.44      12.45
N      -6.07       0.93      11.59
