15

Cu       8.68      11.86      10.33
Cu       7.25      10.94      12.90
Cu       8.51       8.77      10.87
C       7.23       8.55      14.58
C      10.61      10.94       8.35
C       7.72       7.01      13.06
N       6.93      12.67      12.33
N       7.52      13.03      11.15
N       9.73      10.71       9.36
N       9.50       9.36       9.42
N       7.73       8.22      12.46
N       7.43       9.17      13.40
C       6.91      14.14      10.68
C       5.94      13.56      12.60
C      10.23       8.75       8.47
