44

Cu       0.24      12.26       4.00
Cu      -1.73       8.38      -0.13
Cu       4.16      12.50       8.38
Cu       2.20      16.38       0.13
C      -0.38      10.37       1.82
C      -2.35      10.56      -2.01
C       3.55      14.39      -1.82
C       1.58      14.20       2.01
C       2.34      12.22       6.04
C       0.38       6.35      -0.16
C      -1.58      12.54       6.34
C      -3.55       6.04       0.16
N      -0.84      11.17       2.79
N      -2.81       9.59      -1.20
N       3.09      13.59       9.60
N       1.11      15.17       1.20
N      -2.19      11.09       2.80
N      -4.16       9.58      -1.29
N       1.74      13.68       9.58
N      -0.23      15.19       1.29
N      -2.55      10.26       1.86
N       3.33      10.51      10.26
N       1.37      14.50      -1.86
N      -0.60      14.25       2.13
N      -1.44       9.79       1.24
N       4.44      11.14       9.79
N       2.49      14.97      -1.24
N       0.51      13.63       2.60
N       1.60      12.98       5.22
N      -0.37       7.16       0.60
N      -2.33      11.78       7.16
N       3.56      17.60      -0.60
N       1.85      14.28       5.51
N      -0.11       6.87       1.90
N      -2.07      10.48       6.87
N       3.81      17.89      -1.90
N       2.73      14.32       6.48
N       0.77      18.29       1.94
N      -1.20      10.44       5.90
N      -3.16       6.48      -1.94
N       3.05      13.05       6.83
N       1.09      17.94       0.67
N      -0.87      11.72       5.56
N      -2.84       6.82      -0.67
