19

C      -3.54      14.79       7.80
O      -3.00      18.21       5.37
Co      -3.56      17.62       7.15
Co      -2.38      20.35       6.26
O      -0.97      20.40       4.45
O      -3.11      20.99       4.44
C      -4.04      18.21       4.56
O      -4.77      18.62       8.26
O      -3.96      20.59       7.50
O      -1.89      17.53       8.17
O      -0.95      19.40       7.28
C      -1.98      20.87       3.83
C      -4.74      19.91       8.23
C      -0.93      18.38       8.05
C      -0.53      22.68       6.98
C      -2.77      23.19       6.87
N      -1.79      22.26       6.78
N      -4.16      15.73       7.05
C      -5.12      15.32       6.19
