20

Zn       3.58       5.58       3.38
Zn       6.32       5.58       3.38
C       4.95       8.18       3.40
C       4.94       5.57       0.78
C       4.95       2.97       3.38
C       4.95       5.59       5.99
C       0.71       4.78       4.21
C      -0.69       6.39       2.60
C      -0.69       4.78       4.21
C       0.71       6.39       2.60
N       1.39       5.58       3.40
N      -1.37       5.58       3.40
O       3.82       7.61       3.40
O       6.08       7.61       3.40
O       6.08       5.57       1.35
O       3.81       5.57       1.36
O       6.08       3.55       3.37
O       3.82       3.55       3.39
O       3.82       5.59       5.42
O       6.08       5.59       5.41
