23

Zn      -8.01       4.90       8.65
Zn      -9.49       5.85       6.00
Zn      -9.61       7.65       8.68
C      -9.36       8.82       6.05
Zn     -11.19       4.82       8.55
C     -12.15       7.06      10.12
O      -7.73       5.24       5.32
O      -6.77       4.43       7.22
O     -10.75       3.08       9.39
O      -8.49       3.25       9.57
O      -8.24       7.95      10.07
O      -7.04       6.02       9.93
O     -12.22       4.46       6.92
O     -10.81       4.67       5.15
O      -9.71       7.74       5.49
O      -9.25       9.01       7.31
O     -11.38       7.87       9.50
O     -12.23       5.80       9.90
O      -9.59       5.81       7.97
C      -6.80       4.65       5.96
C      -9.61       2.66       9.76
C      -7.27       7.19      10.39
C     -11.86       4.22       5.72
