18

Al       1.62       9.71      14.29
Al      -1.73       9.72      14.32
C      -0.06       8.36      12.29
O       4.42      11.16      13.18
O       1.07       8.27      15.43
O       2.15      10.77      15.82
O      -1.20       8.66      12.78
O       2.15      11.12      13.10
O      -1.20       8.32      15.51
H       3.30       8.01      13.90
O       1.08       8.68      12.75
H      -0.05      11.43      14.70
O       4.43      10.76      15.86
C       3.29      11.07      16.31
O      -0.05      10.51      14.41
O       3.30       8.93      14.20
C       3.29      11.57      12.76
C      -0.06       7.86      15.85
