15

Cu      16.46      25.24      21.31
Cu      17.43      24.20      18.51
Cu      16.22      22.15      20.61
C      18.31      27.42      20.59
N      17.88      25.91      19.03
N      17.60      26.30      20.32
N      15.34      24.16      22.30
C      14.44      24.44      23.27
N      15.37      22.80      22.11
C      18.77      26.78      18.51
N      17.22      22.43      18.04
C      17.59      21.75      16.93
N      16.92      21.52      19.02
C      14.48      22.23      22.96
C      17.09      20.27      18.53
