18

Al      -3.07       4.62       6.21
Al       0.25       4.63       6.20
H      -1.37       6.26       6.74
H      -4.75       3.01       5.56
O      -3.58       6.40       5.87
O      -5.92       4.39       8.06
O      -0.34       2.81       6.17
O      -2.48       4.44       4.37
O      -2.56       2.83       6.54
O      -0.24       4.84       4.33
C      -4.69       7.02       6.02
C      -4.78       4.53       8.62
C      -1.47       2.22       6.29
C      -1.39       4.72       3.79
O      -5.81       6.45       6.20
O      -3.67       4.81       8.05
O      -1.41       5.29       6.73
O      -4.74       3.98       5.68
