9

Zn       6.28      10.84       3.20
I       8.08      12.22       2.03
I       6.37       8.59       4.38
C       4.51      11.85       1.01
N       4.74      10.75       1.76
N       5.28      12.05       4.58
C       3.95       9.67       1.60
C       5.89      12.86       5.47
C       3.96      11.83       4.71
