10

Al       2.99      -4.40       7.99
C       1.02      -4.44      10.05
C       1.06      -2.60       6.98
O       1.96      -5.36       6.65
O       1.96      -5.07       9.47
O       1.95      -2.84       7.86
O       4.05      -5.94       7.80
O       4.03      -3.39       6.69
O       4.04      -3.77       9.47
C       0.98      -6.13       6.89
