38

Cu      22.45      13.93       6.43
Cu      22.64      14.05       3.86
C      20.04      14.49       4.88
C      23.21      16.45       5.41
N      20.72      12.47      10.19
N      24.71      14.96       0.10
O      22.87      15.84       6.48
O      20.74      14.52       3.81
O      23.18      15.97       4.23
O      20.49      14.30       6.06
H      19.82      10.68       9.56
H      26.72      14.97       0.73
H      18.81      11.71      10.62
H      26.25      16.33      -0.33
O      22.14      12.02       6.15
C      19.83      11.35      10.43
O      24.50      13.48       4.14
C      26.12      15.25      -0.14
O      21.98      13.65       8.66
C      22.05      11.49       4.99
C      25.01      13.32       5.30
O      23.10      14.34       1.63
O      22.13      12.10       3.87
O      24.42      13.52       6.42
H      26.47      14.70      -1.03
H      20.17      10.79      11.32
H      21.04      11.87       8.25
H      25.11      14.40       2.04
H      21.63      14.17      11.00
H      22.79      14.89      -0.71
H      21.20      12.92      12.19
H      24.10      14.73      -1.90
C      21.27      12.67       8.98
C      24.29      14.55       1.31
H      19.91      13.93      11.47
H      23.77      16.33      -1.18
C      20.87      13.43      11.27
C      23.79      15.25      -0.98
