17

Co       3.12      -2.94      13.26
O       4.08      -1.80      11.76
C       1.44      -3.25      10.84
H       5.25      -1.97      14.13
H       5.38      -3.57      13.98
O       4.89      -2.83      14.47
O       2.59      -1.03      14.13
H       1.88      -0.49      13.66
H       3.43      -0.54      14.01
C       1.97      -3.63      15.97
C       1.91      -5.38      14.45
C       4.94      -0.87      11.94
N       1.38      -2.97      12.16
N       2.23      -4.10      14.73
C       0.16      -2.77      12.71
C       4.97      -5.00      12.15
O       3.75      -4.58      12.23
