18

O       5.77      17.90       7.82
O       4.71      20.33       7.51
Al       5.26      18.95       6.29
Al       1.94      18.97       6.26
O       8.08      17.68       4.93
O       4.77      20.02       4.76
C       3.58      20.73       7.93
O       8.04      17.79       7.69
C       6.95      17.20       4.63
O       5.83      17.53       5.13
C       3.63      20.38       4.32
O       2.45      20.30       7.56
C       6.92      17.55       8.23
O       3.59      18.16       6.33
O       6.92      19.77       6.22
O       2.49      20.14       4.84
H       3.59      17.22       6.06
H       6.91      20.71       6.44
