23

Zn      12.73      14.90       8.77
Zn      11.49      17.80       9.33
O      14.06      14.51       7.38
Zn      13.39      16.41      11.52
Zn      14.63      17.49       8.77
O      11.94      19.42       8.31
O      15.40      16.34       7.38
O      16.05      17.84      10.09
O      14.18      19.22       7.95
C      10.04      15.69       7.86
C      11.08      18.10      12.24
C      13.06      13.48      11.34
C      16.09      17.61      11.34
C      15.04      15.20       6.96
C      13.06      19.82       7.86
O      13.06      16.65       9.60
O      10.96      14.81       7.94
O      10.73      18.36      11.05
O      13.32      14.51      12.04
O      10.08      16.88       8.33
O      12.81      13.44      10.09
O      12.07      17.38      12.59
O      15.17      17.07      12.04
