23

Zn      16.24      16.31      22.45
Zn      17.77      15.39      25.14
Zn      16.01      18.07      25.11
Zn      14.55      15.23      24.96
C      18.85      14.94      22.41
C      18.55      17.76      26.67
C      16.14      19.26      22.41
C      13.43      17.56      26.40
C      13.74      14.75      22.16
C      16.17      13.25      26.41
O      16.15      16.24      24.41
O      17.89      15.49      21.77
O      18.83      16.56      26.33
O      14.37      18.38      26.14
O      13.52      14.60      23.41
O      13.34      16.34      26.04
O      14.72      15.38      21.63
O      16.05      19.42      23.68
O      18.96      14.82      23.68
O      17.54      18.42      26.28
O      16.22      18.16      21.78
O      17.30      13.78      26.15
O      15.01      13.67      26.04
