20

Cu      10.33       7.97      15.33
Cu       8.19       6.68      15.33
O      10.90       6.73      13.89
O       7.62       7.92      13.89
O       7.62       7.92      16.76
O      10.90       6.73      16.76
O       8.98       5.51      13.92
O       9.54       9.14      13.92
O       9.54       9.14      16.74
O       8.98       5.51      16.74
O      12.14       9.41      15.33
O       6.38       5.24      15.33
H      11.88       9.94      14.55
H       6.64       4.71      14.55
H       6.64       4.71      16.10
H      11.88       9.94      16.10
C      10.14       5.80      13.46
C       8.38       8.84      13.46
C       8.38       8.84      17.19
C      10.14       5.80      17.19
