60

Na       6.98      17.47      10.11
Na       9.80      18.28      11.44
Na       4.16      19.03      10.07
Na       6.96      20.41      11.83
Na       9.78      18.30       8.03
Na       4.14      16.06      11.76
C       1.49      20.84      10.18
C       4.31      16.66       8.49
C       7.13      17.29      12.96
C       6.72      21.44      14.77
C       9.54      20.33       5.68
C       3.90      13.01      11.18
C       6.16      21.51      17.15
C       8.97      22.35       4.43
C       3.35      10.91      10.05
C       6.15      23.57      15.76
C       8.98      20.12       3.33
H       6.78      20.35      14.97
H       9.60      21.05       6.52
H       3.96      13.38      10.13
C       3.35      11.09      12.54
N       6.34      22.14      15.85
N       9.16      20.91       4.53
N       3.53      11.73      11.25
H       5.12      21.64      17.49
H       7.93      22.58       4.15
H       2.31      10.55      10.00
O       6.25      19.83       9.68
O       9.07      16.72       9.61
O       3.43      18.22      12.33
H       6.83      21.96      17.89
H       9.64      22.78       3.67
H       4.02      10.05      10.07
O       7.53      18.90       8.08
O      10.35      15.80      11.22
O       4.72      20.07      12.33
H       6.37      20.44      17.06
H       9.18      22.82       5.40
H       3.55      11.52       9.16
H       5.30      23.87      16.38
O       2.09      19.82       9.67
O       4.91      16.73       9.62
O       7.73      18.23      12.33
H       8.12      20.51       2.76
H       2.49      10.40      12.48
H       5.96      23.84      14.71
O       9.11      20.73      11.12
O       3.48      17.53       8.11
O       6.29      16.53      12.39
O       6.97      21.92      13.64
O       9.79      19.12       5.82
O       4.15      13.74      12.16
H       7.05      24.12      16.10
H       8.79      19.08       3.63
H       9.88      20.15       2.69
H       3.16      11.86      13.29
H       4.25      10.52      12.83
C       6.81      19.84       8.52
C       9.63      15.72      10.18
C       4.00      19.21      12.91
