35

Zn      15.46      -3.09      10.31
Zn      18.13      -5.37       5.91
Zn      15.39      -6.03       8.25
Zn      17.79      -2.29       7.73
C      14.52      -5.37      12.18
C      16.61      -3.51       4.07
C      20.95      -4.07       6.07
C      13.05      -2.89       8.60
C      17.67      -7.41       9.45
C      16.87       0.53       8.45
C      19.58      -2.54      10.06
C      14.03      -7.28       5.68
C      19.31      -7.20       7.97
C      15.45       0.07      10.09
C      18.03      -2.70      11.60
C      20.84      -2.04       6.90
C      13.24      -4.30       6.92
C      14.17      -7.10      10.85
C      16.15      -1.79       5.39
N      14.89      -5.02      10.95
N      16.95      -3.84       5.32
N      19.66      -3.80       6.29
N      14.27      -3.44       8.66
N      17.33      -6.44       8.56
N      16.83      -0.81       8.63
N      18.48      -3.12       9.51
N      15.08      -6.99       6.49
N      18.34      -6.32       7.65
N      15.95      -1.09       9.64
N      17.53      -3.22      10.46
N      16.18      -6.78       5.75
N      19.59      -2.55       6.80
N      14.39      -4.32       7.65
N      14.67      -6.09      10.12
N      16.67      -2.78       6.14
