18

Al       9.78       4.86       7.48
Al      13.12       4.86       7.48
H      11.45       4.19       5.87
H       8.11       5.54       9.09
O       9.20       5.06       5.65
O       7.02       3.06       7.24
O      12.61       4.44       9.29
O      10.28       6.72       7.49
O      10.36       4.67       9.30
O      12.53       6.67       7.72
O       6.94       5.28       5.67
O       9.28       3.00       7.47
C       8.07       5.21       5.08
C       8.13       2.44       7.39
C      11.49       4.51       9.87
C      11.43       7.28       7.56
O      11.45       4.36       6.82
O       8.11       5.36       8.14
