20

Co      10.59       2.81      10.88
Co      10.59       1.24       9.19
C      13.20       2.03      10.03
N      10.50       4.53      12.22
N      10.50      -0.48       7.85
N      11.21       5.64      11.92
N      11.21      -1.59       8.15
O      10.67      -0.20      10.64
O      10.67       4.26       9.43
O      10.54       1.37      12.26
C      10.57       0.15      11.87
C      10.57       3.90       8.20
O      10.54       2.69       7.81
O       8.57       2.84      10.81
O       8.57       1.21       9.26
O      12.61       2.79      10.87
O      12.61       1.26       9.20
C       9.80       4.83      13.32
C       9.80      -0.78       6.75
C       7.97       2.03      10.03
