18

Al       0.13       1.16      19.66
O       0.71      -0.31      20.76
Al       3.50       1.15      19.61
O       4.03       2.47      18.37
O      -0.40       2.11      21.27
O       2.92       0.05      18.12
O       1.82       1.95      19.77
H       1.84       2.79      20.26
O      -1.56       0.33      19.57
H      -1.56      -0.54      19.99
C       1.77      -0.06      17.57
C      -1.56       2.45      21.67
C       1.85      -0.64      21.26
C      -1.58       2.94      18.05
O       2.98      -0.20      20.87
O      -0.47       2.58      18.57
O       0.64       0.27      18.05
O      -2.68       2.27      21.10
