17

Zn       1.95       6.44       9.93
N       2.18       4.31       9.99
C       4.82       6.80       8.72
C       1.70       9.33      11.15
C       2.19       3.55      11.15
C      -0.93       6.09       8.72
N      -0.18       6.24       9.88
C       1.95       6.44      13.34
O       1.94       6.44      12.09
C       1.94       6.44       6.52
O       1.94       6.44       7.78
C       4.93       6.55      10.88
C       1.44       9.38       8.98
C       2.45       3.50       8.99
C      -1.04       6.34      10.88
N       4.08       6.65       9.88
N       1.71       8.57       9.99
