27

Zn       4.64       4.64       5.41
Zn       6.93       6.93       5.41
N       8.70       5.35       7.04
N       2.87       6.21       7.04
Zn       4.64       6.93       7.60
Zn       6.93       4.64       7.60
N       8.70       6.21       5.97
N       2.87       5.35       5.97
O       4.98       4.98       3.47
O       6.59       6.59       3.47
O       4.98       6.59       9.53
O       6.59       4.98       9.53
O       5.78       5.78       6.50
C       5.08       1.59       5.63
C       6.48       9.97       5.63
C       5.08       9.97       7.37
C       6.48       1.59       7.37
C       9.98       5.08       7.37
C       1.59       6.48       7.37
C       9.97       6.48       5.63
C       1.59       5.08       5.63
C       5.78       5.78       2.90
C       5.78       5.78      10.11
N       5.35       2.87       5.97
N       6.21       8.70       5.97
N       5.35       8.70       7.04
N       6.21       2.87       7.04
