14

Zn      -5.42      -5.32       9.18
Zn      -5.39      -5.27       6.48
O      -5.48      -7.28       9.42
O      -5.33      -7.22       7.17
O      -7.33      -5.25       8.43
O      -5.48      -3.37       9.57
O      -7.33      -5.24       6.17
O      -3.49      -5.25       8.52
O      -5.40      -3.36       7.31
O      -3.44      -5.21       6.25
C      -5.43      -7.84       8.27
C      -7.93      -5.22       7.30
C      -5.48      -2.78       8.44
C      -2.87      -5.21       7.41
