23

Zn      41.56      10.00      22.42
Zn      39.95       7.21      22.32
Zn      41.49       8.13      24.98
Zn      43.15       7.24      22.38
C      44.04       6.65      25.14
O      41.53       8.14      23.02
O      38.84       8.47      21.29
O      40.14      10.33      21.10
O      41.61       9.94      25.74
O      41.32      11.26      23.90
O      44.20       8.40      21.18
O      43.27      10.44      21.57
O      39.79       7.36      25.63
O      38.83       6.48      23.76
O      42.72       5.62      21.34
O      40.45       5.71      21.15
O      44.29       6.71      23.89
O      42.97       7.07      25.71
C      39.09       9.64      20.86
C      41.45      11.07      25.16
C      44.14       9.67      21.04
C      38.89       6.69      25.02
C      41.59       5.20      20.91
