11

C       6.67       3.52       7.07
C       3.81      -1.23       7.09
Cd       6.21       0.87       8.01
N       4.53      -0.08       6.89
O       7.35       2.84       7.94
C       3.93       0.57       5.88
C       8.58      -0.53       7.73
N       5.20       1.33      10.01
C       5.75       1.04      11.24
O       7.94      -0.41       8.83
C       4.21       2.21      10.24
