53

Cd       3.55       4.45      11.18
H       2.40      11.18      13.32
H       1.74      10.70      14.91
H       1.90      13.18      12.23
H       1.10      15.53      12.36
H       6.67      11.86       3.15
H       6.12      10.24       4.98
H       7.33       6.74       5.19
H       6.78       8.15       6.12
H       2.02       5.29       8.39
H       2.50       6.32       6.18
H       6.71       6.18       7.25
H       6.04       5.19       9.39
H       0.68       5.99      10.69
H      -0.54       8.04      11.39
H       3.94       6.92      13.06
H       2.90       9.01      13.85
C       1.50      11.18      13.94
C       0.99      12.58      14.10
C       1.30      13.50      13.08
C       0.88      14.83      13.16
C       7.00      10.82       3.10
C       6.69       9.91       4.11
C       7.08       8.56       4.03
C       6.70       7.64       5.15
C       4.06       3.38      14.27
C       3.04       5.51       8.09
C       3.32       6.07       6.86
C       4.65       6.36       6.51
C       5.65       6.02       7.44
C       1.82       3.44      13.71
C       5.28       5.46       8.65
C       5.97       2.20      10.97
C       1.13       6.69      11.39
C       0.46       7.84      11.78
C       1.09       8.73      12.67
C       4.15       1.68       9.65
C       2.95       7.21      12.71
C       2.36       8.39      13.15
S       4.95       7.13       4.97
S       0.22      10.19      13.08
N       6.35       6.19      11.94
N       0.75       2.71      10.42
N       3.10       3.67      13.36
N       4.00       5.22       9.00
N       4.73       2.52      10.53
N       2.37       6.38      11.83
O       5.66       5.11      12.21
O       1.44       3.78      10.15
O       5.80       7.12      11.30
O       1.30       1.78      11.06
O       7.54       6.25      12.34
O      -0.44       2.64      10.02
