62

Zr       2.60      19.28       1.83
Zr      -0.94      19.54       1.81
Zr       2.77      21.28      -1.09
Zr      -0.78      21.44      -1.17
Zr       0.81      18.30      -1.05
Zr       1.02      22.48       1.73
H       1.01      20.28       3.80
H      -2.11      18.97      -0.59
H       0.99      23.54      -1.10
H       3.78      18.77      -0.74
H      -3.46      20.11       2.20
H      -3.19      22.49      -0.86
H      -0.87      22.36      -3.62
H       3.54      23.22      -2.93
H       5.35      21.67      -0.82
H       5.23      18.34       2.06
H       2.66      17.40       3.64
H      -1.62      18.58       4.35
H       3.09      21.88      -3.65
H       5.08      19.85       2.53
H      -1.31      17.41       3.32
H      -3.44      21.45      -2.03
O       3.28      17.14       1.32
O       2.06      16.54      -0.50
O      -1.63      20.86       3.57
O      -0.35      22.73       3.46
O      -1.44      17.22       1.48
O      -0.60      16.67      -0.56
O       3.75      20.83       3.29
O       2.36      22.61       3.48
O       2.64      18.37       3.63
O       4.99      19.24       1.76
O      -0.93      18.20       3.77
O      -2.96      19.43       1.73
O       0.84      18.66       0.98
O       0.93      20.36       2.84
O       3.64      23.36      -0.59
O       2.48      24.07       1.23
O      -1.64      20.18      -2.91
O      -0.53      18.20      -2.82
O      -1.73      23.47      -0.28
O      -0.23      24.23       1.24
O       3.08      20.07      -3.12
O       2.13      18.04      -2.80
O       2.79      22.61      -3.06
O       4.77      21.02      -1.26
O      -0.78      22.73      -2.73
O      -3.16      21.53      -1.10
O       1.01      22.67      -0.65
O       0.89      20.30      -1.50
O       2.45      21.23       0.93
O      -1.23      19.35      -0.40
O       2.95      19.16      -0.43
O      -0.53      21.36       0.96
C       2.93      16.32       0.41
C      -1.25      22.01       4.00
C      -1.32      16.44       0.47
C       3.37      21.92       3.84
C       3.36      24.22       0.32
C      -1.39      19.00      -3.33
C      -1.26      24.37       0.49
C       2.86      18.86      -3.45
