20

Zn      13.56       4.56      12.25
Zn      10.72       4.91      12.35
O      13.47       6.59      11.78
O      10.95       2.89      12.58
O      13.19       2.51      12.65
O      11.25       6.85      12.19
C      12.13       5.20      14.88
C      12.01       4.21       9.73
C      12.42       7.29      11.95
C      16.27       4.90      13.40
C      16.30       4.36      11.14
C      11.98       2.13      12.58
C       7.98       4.74      13.46
C       8.00       5.15      11.17
N       8.68       4.97      12.32
N      15.60       4.58      12.27
O      10.95       5.08      14.44
O      13.20       5.04      14.20
O      10.95       4.63      10.28
O      13.15       4.06      10.31
