36

Sc       1.57       1.02      12.63
Sc       4.69      -1.03      12.63
Sc       7.82      -1.03      10.57
C      -4.22       1.70       8.99
Sc      -1.56       1.03      10.57
C       1.10       2.61       9.90
O       0.12       2.30      13.50
O      -1.74       2.34      12.23
O       4.87       0.63      13.95
O       3.01       1.90      13.90
O       6.14      -2.30      13.50
O       8.00      -2.35      12.23
O       1.39      -0.63      13.94
O       3.25      -1.91      13.90
H       3.13      -0.00      10.71
H      -3.13      -0.00      12.49
H       0.00      -0.89      11.60
H       6.26       0.89      11.60
O       6.38      -2.30       9.69
O       4.52      -2.35      10.97
O      -1.39      -0.63       9.25
O       9.26      -1.90       9.29
O      -0.12       2.30       9.69
O       1.74       2.35      10.97
C       4.23       1.70      14.21
O       7.65       0.63       9.25
O      -3.01       1.90       9.30
C      -1.10       2.61      13.30
O       3.13      -0.00      11.68
O      -3.13      -0.00      11.52
O       0.00       0.08      11.60
O       6.26      -0.08      11.60
C       2.03      -1.70      14.20
C       7.36      -2.61      13.30
C      -2.03      -1.70       8.99
C       5.16      -2.61       9.90
