15

N       7.38       4.16       4.21
N       4.92       6.35       2.54
N       3.65       6.41       3.04
N       2.79       4.35       5.97
N       3.58       3.34       6.45
Cu       6.14       5.31       3.47
Cu       5.27       3.16       5.70
Cu       3.27       5.38       4.52
C       8.60       3.87       3.71
C       7.91       2.12       4.88
C       2.90       7.15       2.20
C       4.97       7.05       1.39
C       2.92       2.73       7.46
C       1.65       4.37       6.69
N       6.95       3.07       4.94
