14

O       1.77      16.25       0.37
O       2.95      15.42      -1.39
Zn       2.28      18.23       0.78
Zn       3.71      17.22      -1.28
C       0.97      18.71      -1.48
C       4.39      17.03       1.82
O       3.39      17.71       2.28
O       0.81      19.00      -0.23
O       1.96      18.08      -1.97
O       3.68      19.60       0.04
C       4.71      19.59      -0.69
O       5.00      18.67      -1.55
C       2.08      15.32      -0.45
O       4.62      16.80       0.60
