20

Zn      10.03       5.97       9.54
O      12.78       4.74      10.69
Zn      12.81       6.49       9.56
O      10.54       4.70      11.07
O      12.25       8.14       8.41
O      10.15       7.36       8.02
C      11.74       4.29      11.25
C      11.14       8.13       7.78
O      10.58       4.52       8.20
O      12.66       5.35       7.84
C      11.69       4.57       7.58
C      15.59       6.09      10.41
C       7.28       4.82       9.89
C       7.34       7.07       9.33
C      11.14       7.90      11.55
C      15.44       7.60       8.65
N      14.83       6.79       9.54
N       7.99       5.92       9.57
O      10.10       7.58      10.88
O      12.33       7.53      11.29
