18

Al       0.24      16.78       8.97
Al      -3.07      16.94       9.00
O      -1.40      17.69       8.92
O       1.93      16.04       8.91
H      -1.31      18.53       8.45
H       2.02      15.22       8.39
C       1.90      18.54       7.23
C       1.79      18.45      10.76
C      -1.51      15.25      10.73
C      -1.41      15.21       7.20
O       0.83      18.21       7.83
O      -3.71      18.28      10.20
O      -2.59      15.91      10.54
O      -0.24      15.69       7.40
O      -0.41      15.40      10.09
O      -2.47      15.52       7.82
O      -3.56      18.09       7.46
O       0.73      17.80      10.50
