14

Cu       3.67      18.82      16.15
O       0.93      20.04      15.84
Cu       1.44      18.82      17.33
O       4.18      20.04      17.64
C       1.80      17.12      15.00
C       3.31      17.12      18.48
O       2.92      17.68      14.74
O       2.19      17.68      18.74
O       3.05      20.41      15.11
O       2.06      20.41      18.37
C       1.81      20.69      15.16
O       1.11      17.30      16.06
C       3.30      20.69      18.33
O       4.00      17.30      17.43
