84

Ti       7.15       1.03       1.78
Ti       7.15       1.03      -1.78
Ti       7.15      -2.06      -0.00
Ti      13.06      -1.03      -1.78
Ti      13.06      -1.03       1.78
Ti      13.06       2.06       0.00
Ti      10.58       1.03       1.78
Ti      10.58      -2.06       0.00
Ti      10.58       1.03      -1.78
Ti       4.67      -1.03      -1.78
Ti       4.67       2.06       0.00
Ti       4.67      -1.03       1.78
H       8.87      -0.62       3.01
H       8.87       2.92      -0.97
H       8.87      -2.30      -2.04
H       2.96       0.62      -3.01
H       2.96      -2.92       0.97
H       2.96       2.30       2.04
H       8.87       2.92       0.97
H       8.87      -2.30       2.04
H       8.87      -0.62      -3.01
H       2.96      -2.92      -0.97
H       2.96       2.30      -2.04
H       2.96       0.62       3.01
C       5.91       0.00       4.40
C       5.91       3.81      -2.20
C       5.91      -3.81      -2.20
C      11.82      -0.00      -4.40
C      11.82      -3.81       2.20
C      11.82       3.81       2.20
C       5.91      -0.00      -4.40
C       5.91      -3.81       2.20
C       5.91       3.81       2.20
C      11.82      -0.00       4.40
C      11.82       3.81      -2.20
C      11.82      -3.81      -2.20
O       6.73       0.78       3.81
O       6.73       2.91      -2.58
O       6.73      -3.69      -1.23
O      12.64      -0.78      -3.81
O      12.64      -2.91       2.58
O      12.64       3.69       1.23
O      11.01       2.91       2.58
O      11.01      -3.69       1.23
O      11.01       0.78      -3.81
O       5.10      -2.91      -2.58
O       5.10       3.69      -1.23
O       5.10      -0.78       3.81
O       5.10      -0.78      -3.81
O       5.10      -2.91       2.58
O       5.10       3.69       1.23
O      11.01       0.78       3.81
O      11.01       2.91      -2.58
O      11.01      -3.69      -1.23
O      12.64      -2.91      -2.58
O      12.64       3.69      -1.23
O      12.64      -0.78       3.81
O       6.73       2.91       2.58
O       6.73      -3.69       1.23
O       6.73       0.78      -3.81
O       8.87       0.21       2.52
O       8.87       2.08      -1.45
O       8.87      -2.29      -1.08
O       2.96      -0.21      -2.52
O       2.96      -2.08       1.45
O       2.96       2.29       1.08
O       8.87       2.08       1.45
O       8.87      -2.29       1.08
O       8.87       0.21      -2.52
O       2.96      -2.08      -1.45
O       2.96       2.29      -1.08
O       2.96      -0.21       2.52
O       5.04       0.85       1.48
O       5.04       0.85      -1.48
O       5.04      -1.71      -0.00
O      10.95      -0.85      -1.48
O      10.95      -0.85       1.48
O      10.95       1.71      -0.00
O      12.69       0.85       1.48
O      12.69      -1.71       0.00
O      12.69       0.85      -1.48
O       6.78      -0.85      -1.48
O       6.78       1.71      -0.00
O       6.78      -0.85       1.48
