24

C      13.78      13.40      28.53
Al      12.27      14.87      30.68
Al      15.42      14.95      30.13
C      14.47      13.60      32.34
C      11.73      16.95      28.59
C      12.29      17.43      32.37
Al      13.93      17.56      30.16
C      16.22      17.11      31.80
C      15.77      16.92      28.09
O      11.43      15.95      29.30
O      12.76      13.64      29.25
O      15.00      13.66      28.87
O      16.20      15.85      28.64
O      15.06      17.82      28.66
O      12.57      17.87      28.93
O      11.95      16.23      32.15
O      13.26      13.89      32.09
O      15.45      13.70      31.50
O      16.51      15.98      31.27
O      15.40      17.95      31.29
O      12.90      18.22      31.55
O      13.89      15.81      30.32
O      10.76      14.04      31.01
H      10.64      13.73      31.92
