11

Zn       1.22      12.23       1.62
O       0.14      11.65       3.15
O       2.30      10.60       1.49
C      -0.53      13.36      -0.53
C       2.97      14.66       1.51
C       0.47      11.34      -1.04
C       1.97      14.26       3.56
N       0.28      12.34      -0.16
N       2.16      13.89       2.28
C       3.32      10.63       0.70
C      -0.88      12.38       3.46
