13

C       8.95      16.15      14.42
C      12.09      15.82       9.84
N      12.01      14.69      13.40
C      12.39      13.63      12.66
C      12.39      17.91      10.34
Zn      11.34      16.49      12.74
N       9.38      16.44      13.14
C      12.39      19.25      13.86
C       8.26      16.60      12.41
N      12.07      17.94      13.97
C      12.16      14.27      14.71
C      12.20      17.66      15.31
N      11.90      16.76      10.84
