20

Zn       6.72       5.99      13.91
Zn       4.06       6.04      14.06
C       5.47       8.62      14.15
C       5.38       3.40      13.79
C       5.29       6.23      11.35
C       5.42       5.72      16.61
C      10.81       5.27      14.89
C       9.46       6.78      13.10
C      10.84       6.80      13.15
C       9.42       5.24      14.84
N       8.77       5.99      13.94
N      11.50       6.05      14.04
O       6.60       8.02      14.09
O       4.26       4.01      13.82
O       6.52       3.97      13.74
O       4.34       8.05      14.25
O       6.45       6.22      11.87
O       4.26       5.74      16.09
O       6.52       5.78      15.97
O       4.19       6.26      12.01
