11

O      -3.13       3.51      16.54
O       0.50       2.87      15.18
N      -1.60       1.25      16.30
C      -1.94       6.01      15.10
Cu      -1.31       3.19      15.87
C      -2.85       0.77      16.15
C      -0.67       0.42      16.82
C       0.25       5.60      15.71
N      -1.00       5.14      15.53
C       0.65       2.26      14.05
C      -3.26       3.99      17.73
