62

Hf      12.58       1.73       0.52
Hf      12.63      -0.64      -2.06
Hf      11.73      -0.83       2.78
O      10.84       0.87       1.68
Hf       9.76      -0.25      -0.09
Hf      14.58      -1.20       0.81
O      13.21      -1.85      -0.58
Hf      11.71      -3.20       0.15
H      14.63       1.17      -1.15
H      10.29      -2.20      -2.09
H      13.22      -3.25       2.43
H      10.35       1.45       2.29
H      11.76      -2.10      -4.09
H      12.23      -3.45      -2.61
H      10.54      -4.86       1.81
H      11.87      -2.37       5.01
H      12.19       0.83       4.72
H      11.97       3.96       1.94
H      12.62       3.68      -1.21
H      13.90       0.79      -4.10
H      10.37      -2.36       4.48
H      13.44       3.48       2.32
H      12.33       1.06      -4.09
H      12.73      -4.72      -1.77
C       9.51       2.93       0.11
C      15.87      -1.10      -2.14
C       9.60       0.05      -3.29
C      15.82       1.70       1.20
C      14.74      -1.29       3.99
C       8.47      -3.15      -0.27
C      14.83      -4.32       0.32
C       8.42      -0.62       2.78
O      10.77       3.15       0.30
O       9.01       1.78      -0.14
O      14.75      -0.87      -2.73
O      16.02      -1.31      -0.89
O      10.88       0.04      -3.49
O       9.03       0.05      -2.15
O      14.67       2.25       1.37
O      16.01       0.43       1.14
O      13.28       3.27      -0.63
O      12.50       3.22       2.31
O      13.15       1.07      -3.55
O      12.54      -2.16      -3.51
O      11.50       0.60      -0.80
O      13.99       0.59      -0.72
O      13.48      -1.17       4.19
O      15.30      -1.44       2.85
O       9.61      -3.73      -0.22
O       8.30      -1.89      -0.40
O      13.60      -4.49      -0.00
O      15.33      -3.24       0.79
O       9.51      -1.07       3.29
O       8.31      -0.18       1.59
O      11.30      -2.60       4.26
O      11.39       0.47       4.32
O      11.42      -4.75       1.42
O      11.94      -4.16      -1.92
O      12.95      -2.50       1.88
O      10.78      -1.60       1.06
O      13.18       0.04       1.65
O      10.84      -1.76      -1.42
