23

Zn      16.22      16.47      22.43
Zn      17.80      15.59      25.08
Zn      16.03      18.29      25.07
Zn      14.59      15.41      24.96
C      18.85      15.11      22.37
C      18.55      17.99      26.62
C      16.15      19.43      22.35
C      13.45      17.75      26.37
C      13.75      14.90      22.16
C      16.23      13.43      26.38
O      16.17      16.45      24.39
O      17.85      15.61      21.76
O      18.81      16.79      26.25
O      16.09      19.62      23.62
O      19.01      15.02      23.63
O      16.19      18.31      21.75
O      17.55      18.69      26.26
O      14.39      18.58      26.10
O      13.57      14.76      23.41
O      13.38      16.53      26.01
O      14.71      15.53      21.60
O      17.35      13.98      26.12
O      15.07      13.83      26.02
