18

Al       5.82       8.01       8.29
Al       2.49       7.99       8.30
H       4.16       6.27       8.03
H       7.50       9.74       8.56
C       4.15       9.50       6.40
C       7.48       6.51      10.20
C       4.15       9.68      10.05
C       7.49       6.33       6.54
O       3.01       9.29       9.63
O       6.35       6.72       6.96
O       5.28       9.20       6.89
O       8.62       6.81       9.70
O       5.29       9.30       9.63
O       8.63       6.70       6.96
O       6.35       6.84       9.71
O       3.02       9.17       6.88
O       4.16       7.19       8.32
O       7.49       8.81       8.27
