27

Mn       1.33      -0.50       7.73
Mn      -1.01      -0.65       9.72
Mn       3.68       1.15       8.85
C      -0.63       2.02       7.99
C       4.06      -1.68       7.40
C       1.71      -0.33      10.91
C       1.68       2.52       6.99
C      -0.66      -2.79       7.47
C      -3.01       0.28      11.84
C       0.99      -1.67       4.64
C      -1.35      -2.74      12.27
C       3.34       4.41       9.38
O      -0.22       0.88       8.42
O      -2.57      -0.74       8.18
O       2.12      -0.14       9.70
O      -1.83       2.42       8.19
O       2.86      -1.71       6.96
O       0.52      -0.70      11.15
O       2.24       1.35       7.36
O      -0.11      -1.89       8.30
O      -2.45       0.54      10.64
O       1.39      -2.54       3.97
O      -0.95      -2.88      13.37
O       3.74       5.42       8.96
O       0.58      -0.77       5.29
O      -1.77      -2.63      11.17
O       2.92       3.40       9.84
