40

Cd      10.54       3.59       1.03
Cd       3.12       3.59      -1.03
Cd      14.65       3.69       1.23
Cd       7.24       3.69      -1.22
N      10.52       1.30       0.95
N       3.10       1.30      -0.95
H      12.20       3.67       3.22
H       4.79       3.67      -3.22
H      12.69       2.26       2.53
H       5.28       2.26      -2.52
N      14.82       5.88       1.25
N       7.40       5.88      -1.24
O      10.16       3.90      -1.18
O       2.74       3.90       1.19
C      15.48       2.22       3.50
C       8.06       2.22      -3.50
O      15.33       1.82       2.26
C       7.18       2.91       1.44
O      13.70       2.52      -0.62
C      14.60       2.90      -1.44
O      15.58       3.64      -1.05
O       8.17       3.64       1.05
O       7.91       1.82      -2.26
O       6.28       2.53       0.62
O      10.46       5.29       2.52
O       3.04       5.28      -2.52
O      12.53       3.20       2.32
O       5.11       3.20      -2.32
C      10.70       5.18       3.78
C       3.28       5.18      -3.78
C      10.57       0.48       2.01
C       3.16       0.48      -2.01
C      10.80       0.53      -0.15
C       3.39       0.53       0.15
C      11.10       4.75      -1.42
C       3.68       4.75       1.41
C      14.70       6.68       2.31
C       7.28       6.68      -2.31
C      14.98       6.70       0.15
C       7.56       6.70      -0.15
