20

Zn       5.97       9.73       8.93
Zn       5.97       6.99       8.90
C       5.68       8.34       6.32
C       6.00       8.34      11.52
C       8.55       8.37       8.75
C       3.37       8.39       9.09
C       6.76      12.47       8.10
C       5.12      12.45       9.76
C       6.76       4.13       8.15
C       5.04       4.17       9.66
N       5.95      11.80       8.93
N       5.91       4.82       8.91
O       5.55       9.46       6.91
O       6.28       9.45      10.96
O       6.03       7.25       6.86
O       5.82       7.23      10.94
O       7.95       9.48       8.53
O       3.97       9.49       9.34
O       7.98       7.27       9.03
O       3.94       7.30       8.76
