62

Zr      15.83       1.75       0.13
Zr      19.41       1.65       0.13
Zr      15.73      -1.82       0.11
Zr      19.30      -1.91       0.10
Zr      17.56      -0.07      -2.36
Zr      17.57      -0.09       2.60
H      17.55       2.73       2.09
H      20.37      -0.15      -1.85
H      17.59      -2.90       2.06
H      14.77      -0.06      -1.86
H      22.00       1.55      -0.61
H      21.60      -0.27       0.18
H      19.19      -4.46      -0.62
H      17.35      -4.12       0.08
H      13.20      -1.64       0.91
H      13.53       0.17       0.15
H      16.00       4.29      -0.64
H      17.81       3.95       0.08
H      15.97      -4.55       0.87
H      13.14       1.54      -0.68
H      19.20       4.34       0.88
H      21.82      -1.61       1.08
O      15.55      -0.04      -1.27
C      15.34       2.09       3.36
O      15.11      -2.62      -1.91
C      19.81      -2.28       3.37
O      15.08       2.56      -1.87
O      16.23       1.38      -3.44
O      20.10       2.46       2.14
O      19.02       1.20       3.70
O      20.09       2.43      -1.91
O      18.89       1.29      -3.47
O      15.00       2.33       2.16
O      16.23       1.24       3.73
O      16.37       3.82       0.13
O      13.59       1.24       0.12
O      18.88       3.88       0.09
O      21.49       1.21       0.13
O      17.61       1.41      -0.92
O      17.58       1.94       1.52
O      14.97      -2.61       2.09
O      16.11      -1.44       3.67
C      15.40       2.28      -3.08
O      18.87      -1.52      -3.45
C      19.74       2.18      -3.11
O      20.00      -2.73      -1.89
O      18.89      -1.47       3.72
O      20.20      -2.49       2.16
O      16.28      -4.06       0.09
C      19.82       2.13       3.35
C      15.41      -2.34      -3.11
O      21.53      -1.33       0.20
C      15.27      -2.32       3.31
O      17.53      -1.56      -0.93
C      19.69      -2.44      -3.10
O      16.22      -1.42      -3.48
O      19.59      -0.14      -1.28
O      19.06      -0.09       1.17
O      13.66      -1.27       0.14
O      18.80      -3.99       0.15
O      17.56      -2.11       1.50
O      16.09      -0.07       1.16
