20

O      -0.93      16.40      24.62
O      -1.38      14.40      25.61
Zn      -2.95      15.26      26.69
Zn      -2.01      17.88      25.61
O      -1.08      17.90      27.42
O      -1.49      15.78      28.11
O      -4.02      16.74      27.68
O      -3.58      18.74      26.70
C      -4.57      13.83      28.69
C      -2.55      12.79      28.17
C      -3.89      16.18      24.02
C      -0.99      15.12      24.64
C      -0.39      19.32      23.61
C      -2.41      20.35      24.14
C      -1.06      16.96      28.28
C      -3.97      18.02      27.66
N      -3.50      13.70      27.87
N      -1.45      19.45      24.43
O      -3.88      15.24      24.88
O      -3.47      17.36      24.19
