10

Al       0.02      29.23      16.89
C      -2.03      28.20      15.12
C      -2.03      28.23      18.66
C      -2.04      31.28      16.88
O      -1.05      28.00      17.87
O      -1.07      30.70      17.45
O      -1.05      28.99      15.31
O       1.11      29.03      18.44
O       1.11      27.99      15.92
O       1.09      30.70      16.28
