10

Al       0.00      18.37       3.54
O      -1.04      19.02       2.06
O      -1.04      16.77       3.71
O      -1.04      19.32       4.84
O       1.04      17.72       2.06
O       1.04      19.97       3.71
O       1.04      17.42       4.84
C      -1.97      16.58       4.57
C      -1.97      20.16       4.57
C      -1.97      18.37       1.47
