23

Zn      10.64      18.44       0.95
Zn       8.97      16.89      -1.23
Zn       9.09      20.07      -1.30
Zn       7.41      18.53       1.03
O       9.01      18.51      -0.12
O      11.80      16.91       0.55
O       9.23      17.30      -3.13
O      10.69      21.17      -0.96
O      10.40      15.65      -0.72
O      11.71      20.06       0.73
O       9.12      19.58      -3.21
O       7.52      21.19      -0.97
O       7.90      18.52       2.95
O       6.31      20.11       0.64
O      10.17      18.30       2.85
O       7.29      15.91      -1.06
O       6.34      16.90       0.75
C      11.48      15.84      -0.08
C       9.19      18.42      -3.75
C      11.59      21.04      -0.07
C       6.53      21.09      -0.17
C       9.06      18.38       3.47
C       6.42      15.98      -0.13
