18

Al       5.69       6.93       8.12
Al       9.02       6.92       8.09
O       7.36       7.77       8.17
O       5.23       7.95       9.71
O       6.30       5.49       9.28
O       9.51       8.02       6.60
O       4.02       6.09       8.12
O       9.68       8.19       9.36
H       4.02       5.21       7.71
H       7.38       8.56       8.74
O       5.07       8.31       6.97
O       6.18       5.86       6.60
C       3.99       8.52       6.32
C       4.07       8.35      10.04
C       7.37       5.31       9.94
C       7.30       5.33       6.32
O       8.51       5.89       9.69
O       8.41       5.56       6.93
