26

Zn      10.29      11.82      10.93
C      12.75       9.65      11.75
O      11.27      15.32      11.06
C       8.80       9.17      10.20
Zn      10.22      14.77       9.47
O      10.98      11.71       8.97
Zn      10.51       8.75      12.47
O      11.24      13.81       8.11
O       8.91      13.49      10.42
C      11.80      14.41      11.80
O      12.65       8.62      12.49
O      11.68      10.23      11.32
O       9.33       8.27      10.96
O       8.86      10.41      10.37
O       9.90       9.91      13.95
O       9.49      11.88      12.88
C       9.46      11.12      13.88
C       9.60      16.66       7.33
C      11.35      12.53       8.07
C      10.49      17.72       9.20
C       7.92      13.61       9.58
C      10.17       5.78      12.85
C      10.61       6.92      14.82
N      10.07      16.59       8.59
N      10.36       6.94      13.49
O      11.71      13.16      11.61
