23

Zn      -6.22       3.59      14.45
Zn      -4.62       2.67      17.05
Zn      -3.03       3.59      14.45
Zn      -4.62       0.83      14.45
C      -7.21       4.17      17.22
C      -2.03       4.17      17.22
C      -4.62       5.66      12.99
C      -2.03       1.17      12.99
C      -7.21       1.17      12.99
C      -4.62      -0.32      17.22
O      -4.62       2.67      15.10
O      -7.34       4.24      15.93
O      -3.04       3.58      17.78
O      -3.49       5.15      13.35
O      -6.20       3.58      17.78
O      -5.76       5.15      13.35
O      -1.91       4.24      15.93
O      -1.91       2.41      13.35
O      -6.20       0.45      13.35
O      -3.04       0.45      13.35
O      -7.34       2.41      13.35
O      -4.62       0.84      17.78
O      -4.62      -0.46      15.93
