23

Zn      18.75       9.36      18.94
Zn      17.10      10.89      21.15
Zn      17.18       7.72      21.19
Zn      15.50       9.26      18.89
O      17.11       9.29      20.02
O      19.93      10.86      19.37
O      17.38      10.43      23.03
O      18.80       6.64      20.89
O      18.50      12.13      20.61
O      19.77       7.69      19.13
O      17.05       8.17      23.10
O      15.63       6.58      20.80
O      15.98       9.16      16.96
O      14.35       7.70      19.30
O      18.22       9.54      17.06
O      15.40      11.84      21.01
O      14.48      10.93      19.14
C      19.60      11.94      19.98
C      17.17       9.33      23.64
C      19.67       6.74      19.97
C      14.61       6.71      20.06
C      17.13       9.34      16.44
C      14.55      11.82      20.05
