10

Al       4.03       6.96      12.06
C       6.03       4.86      12.06
C       6.02       8.00      13.88
C       6.02       8.00      10.25
O       5.10       8.24      11.13
O       5.10       5.50      11.42
O       5.10       7.12      13.65
O       2.97       7.13      10.48
O       2.97       8.24      13.01
O       2.97       5.50      12.71
