20

Zn       1.35       7.45      15.20
Zn      -1.35       9.43      14.05
C      -2.32       7.42      12.02
C       2.32       6.69      12.44
N      -0.51       7.23      15.86
N       0.51      10.12      14.19
N      -1.56       8.05      15.48
N       1.56       9.37      14.71
C      -0.48       8.63      11.30
C       0.48       5.47      13.12
N      -1.35       8.32      12.27
N       1.35       6.47      13.34
O      -3.20      10.22      13.91
O       3.20       6.93      15.80
C      -3.00      11.07      12.94
C       3.00       5.67      16.06
C      -1.01       6.32      16.68
C       1.01      11.28      13.81
C      -2.66       7.58      16.10
C       2.66      10.15      14.62
