9

Zn       5.62       7.89      11.51
N       3.62       7.85      11.39
C       6.97      10.35      12.19
O       5.85       9.73      12.21
O       6.21       8.37       9.64
O       6.03       5.97      11.49
C       7.34       8.21       9.08
C       2.52       7.79      11.75
C       7.17       5.40      11.65
