40

Zn       6.65      11.75       9.15
N       8.26      17.01       9.21
N       4.89      14.27       8.38
Zn       6.99      14.84       7.70
N       4.97      12.97       8.70
N       7.12      16.25       9.07
N       8.09      12.24      11.71
N       7.17      11.98       7.19
Zn       9.98      15.74       9.32
N       9.63      15.43      11.26
N       8.79      15.15       6.71
N       9.94      15.62       7.29
N      11.59      14.39       9.30
N       6.74      13.16       6.64
N      10.10      14.32      11.92
N      10.99      13.15       9.21
Zn       9.90      12.59      10.78
N       9.28      10.51       9.96
N       8.22       9.98       9.37
O      11.27      11.19      11.68
O       5.00      10.42       9.06
H       5.27       9.47       8.82
C       6.32      10.94      11.90
C       7.89      18.17       9.75
C       9.83      14.49      13.23
C       3.74      14.45       7.68
C       9.11      16.28      12.17
C       3.90      12.31       8.19
C       6.07      16.96       9.55
C       8.20      11.56      12.87
C       6.72      10.98       6.39
C      12.70      14.35       8.55
C      10.00       9.52      10.57
C       9.07      14.81       5.44
C      10.91      15.60       6.37
C       6.01      12.90       5.54
C      11.76      12.36       8.42
C      11.11       9.98      11.39
C       3.91      10.85       8.30
N       6.94      11.84      11.11
