66

Dy      14.80      14.20      18.14
Dy      17.79      11.40      19.61
O      17.27      11.49      17.38
O      15.94      13.07      16.46
O      18.13      13.64      19.13
O      16.82      15.29      18.31
O      13.55      16.22      18.61
O      12.63      14.28      19.23
C      15.75      16.90      16.02
C      15.73      17.84      14.97
C      13.86      16.66      14.03
C      13.94      15.78      15.14
C      14.79      17.72      13.97
C      12.84      16.48      13.04
C      11.89      15.51      13.19
C      11.88      14.66      14.34
C      10.83      13.75      14.61
C      12.01      13.06      16.57
C      12.94      14.75      15.29
C      10.89      12.96      15.73
H      16.49      16.95      16.82
H      16.47      18.64      14.95
H      14.76      18.42      13.13
H      12.82      17.15      12.18
H      11.09      15.39      12.46
H       9.99      13.71      13.92
H      10.10      12.26      15.99
H      12.09      12.44      17.46
C      16.72      12.06      16.39
C      11.17      16.13      18.92
C      17.92      14.83      18.75
C      12.53      15.52      18.94
H      16.10       8.65      20.93
H      16.12       6.96      22.79
H      17.83       7.18      24.61
H      19.77       8.45      25.56
H      21.51      10.21      25.29
H      22.61      11.89      23.82
C      17.80       7.88      23.77
C      16.85       8.70      21.72
C      16.86       7.76      22.77
C      19.75       9.12      24.71
H      22.49      13.34      21.75
C      18.73       8.94      23.71
C      18.66       9.82      22.60
H      20.50      13.16      20.29
C      20.71      10.09      24.55
C      20.71      10.94      23.41
C      21.76      11.85      23.14
C      21.70      12.64      22.01
C      20.58      12.54      21.17
C      19.66      10.85      22.46
N      14.88      15.90      16.11
N      13.00      13.93      16.38
N      17.71       9.70      21.63
N      19.59      11.67      21.37
C      15.87      13.54      21.35
C      21.42       9.47      18.83
C      14.67      10.77      18.99
C      20.06      10.08      18.80
O      15.32      14.11      20.36
O      16.65      12.53      21.29
O      14.46      11.96      18.61
O      15.77      10.31      19.44
O      19.04       9.38      19.13
O      19.96      11.33      18.51
