23

Zn       9.28       4.85       9.84
Zn      10.86       5.91       7.25
Zn       7.69       5.89       7.21
Zn       9.33       3.12       7.11
C      11.83       6.31      10.02
C       9.29       8.00       5.92
C       6.73       6.30      10.01
C       6.75       3.57       5.68
C       9.29       1.89       9.79
C      11.85       3.59       5.69
O       9.27       4.93       7.87
O      10.87       5.72      10.63
O      10.43       7.52       6.23
O       6.61       6.44       8.75
O      11.95       6.46       8.77
O       7.69       5.72      10.62
O       8.14       7.52       6.20
O       6.55       4.79       6.04
O       9.31       1.76       8.52
O       7.73       2.84       6.00
O       9.28       2.98      10.46
O      11.96       4.79       6.09
O      10.90       2.77       5.98
