59

La       4.94       6.67       3.85
La      -4.94       6.67      -3.85
Ni       0.00       6.67      -0.00
Ni       0.00      10.01       5.78
Ni       0.00       3.34       5.78
H       1.18       8.78      -0.57
H       1.18       9.45       7.89
H       1.18       1.79       4.24
H      -1.18       4.57       0.57
H      -1.18      10.57       3.67
H      -1.18       4.89       7.32
C       2.35       6.65       1.38
C       2.35       8.83       5.07
C       2.35       4.54       5.11
C      -2.35       6.70      -1.38
C      -2.35      11.19       6.49
C      -2.35       2.13       6.45
C       2.17       8.13       1.11
C       2.17       8.32       6.49
C       2.17       3.57       3.96
C      -2.17       5.22      -1.11
C      -2.17      11.70       5.07
C      -2.17       3.10       7.60
C       7.45       9.30       1.05
C       7.45       7.79       7.53
C       7.45       2.93       2.98
C       0.02       4.04      -1.05
C       0.02      12.24       4.03
C       0.02       3.74       8.58
C       6.53       8.56       2.01
C       6.53       7.33       6.41
C       6.53       4.14       3.14
C       0.94       4.79      -2.01
C       0.94      12.70       5.15
C       0.94       2.54       8.42
N       0.93       8.41       0.36
N       0.93       8.83       7.10
N       0.93       2.78       4.10
N      -0.93       4.94      -0.36
N      -0.92      11.19       4.46
N      -0.93       3.89       7.46
O       3.36       6.28       2.06
O       3.36       8.43       4.41
O       3.35       5.32       5.09
O      -3.35       7.07      -2.06
O      -3.35      11.60       7.15
O      -3.35       1.36       6.47
O       1.50       5.83       0.90
O       1.50       9.65       4.60
O       1.50       4.54       6.06
O      -1.50       7.52      -0.90
O      -1.50      10.37       6.96
O      -1.50       2.14       5.50
O       6.63       7.29       2.08
O       6.63       7.90       5.27
O       6.63       4.83       4.21
O       0.84       6.06      -2.08
O       0.84      12.12       6.29
O       0.84       1.84       7.35
