20

Zn       6.54       9.08      16.57
Zn       9.36       9.07      16.61
N      11.41       9.03      16.59
N       4.49       9.12      16.72
O       6.77       7.05      16.65
O       9.03       7.03      16.90
O       9.20       9.24      18.70
O       6.93       9.12      18.62
O       9.08      11.10      16.41
O       6.81      11.10      16.54
O       6.80       9.04      14.53
O       9.06       8.83      14.59
C       7.90       6.46      16.78
C       8.05       9.15      19.23
C       7.94      11.69      16.46
C       7.94       8.93      13.98
C      12.04       8.12      17.35
C      12.09       9.95      15.90
C       3.89       8.65      17.82
C       3.79       9.63      15.70
