14

O       3.04       4.53       5.01
O       3.19       2.07       8.72
Zn       2.35       4.97       6.78
Zn       4.07       3.78       8.47
O       1.62       3.13       7.47
O       1.27       5.90       8.07
O       2.80       5.09       9.54
O       4.07       6.16       7.21
O       5.56       5.03       8.48
C       4.02       3.73       5.25
C       2.08       2.10       8.07
C       1.76       5.77       9.26
C       5.18       6.07       7.82
O       4.35       3.32       6.40
