18

O       4.57       3.53       4.33
Al       5.12       4.74       5.73
O       5.66       5.95       7.11
Al       1.78       4.77       5.76
O       2.30       3.58       4.34
O       3.45       5.56       5.76
O       6.79       3.96       5.71
O       7.93       5.94       7.19
O       4.59       3.47       7.07
H       3.46       6.49       5.49
O       2.31       3.48       7.07
H       6.81       2.99       5.82
O       5.64       6.01       4.38
C       3.43       3.23       3.87
C       6.78       6.29       7.61
C       3.45       3.09       7.50
O       1.24       6.08       4.45
C       6.78       6.42       3.98
