13

C      17.59      27.86       9.72
C      21.73      31.15       8.83
C      17.47      31.32      12.50
C      18.24      30.86       7.64
C      17.94      32.43       9.11
C      19.46      27.17      10.59
Zn      19.35      30.17      10.47
N      18.78      28.29      10.27
N      21.30      30.49       9.95
N      18.78      31.13      12.11
N      18.42      31.18       8.97
C      22.43      30.12      10.58
C      19.53      31.71      13.07
