23

Zn      20.13       1.64      22.96
Zn      18.53       4.43      22.74
Zn      18.42       2.77      25.48
Zn      16.93       1.68      22.85
C      21.08       3.97      21.36
C      18.48       5.71      25.41
C      21.01       1.29      25.73
C      15.91       1.27      25.62
C      18.57      -0.44      21.58
C      15.96       3.99      21.34
O      18.52       2.62      23.51
O      21.24       2.78      21.79
O      18.53       5.81      24.14
O      20.03       1.91      26.22
O      20.11       4.75      21.62
O      21.23       1.07      24.49
O      18.42       4.64      26.10
O      16.82       1.92      26.24
O      17.42       0.07      21.84
O      15.85       1.07      24.36
O      19.71       0.02      21.92
O      16.94       4.75      21.65
O      15.79       2.78      21.70
