11

C      10.67       7.91       9.00
Zn       8.27       6.14       8.53
C       5.88       7.91       8.06
C       6.52       7.71      10.27
O       7.96       5.37       6.72
N       9.84       7.38       8.08
C      10.03       7.72       6.79
C       6.94       4.57       6.75
N       6.71       7.37       8.98
O       8.60       5.38      10.35
C       9.62       4.58      10.32
