50

Zn      10.36      10.62       5.53
O      10.16      10.94       3.53
O      10.15       7.53       6.58
Zn      10.36       7.85       4.58
O      12.40      10.36       5.17
O      12.40       8.10       4.94
O       8.32      10.22       5.62
O       8.32       8.25       4.48
H      12.23      12.65       4.02
H      12.23       5.82       6.11
H      13.57      14.72       3.57
H      13.57       3.75       6.56
H      13.42      16.69       5.07
H      13.43       1.78       5.05
H      11.94      16.67       7.06
H      11.97       1.80       3.05
H       8.22      12.98       8.67
H       8.25       5.49       1.43
H       9.48      11.78       9.08
H       9.51       6.69       1.03
H       8.44      11.51       7.67
H       8.46       6.96       2.44
H      10.09      14.84       8.43
H      10.12       3.64       1.68
C      10.46       8.39       7.47
C      10.48      10.08       2.64
C      12.98       9.23       5.06
C       7.74       9.24       5.05
C      11.27      14.63       6.64
C      11.29       3.84       3.47
C      11.33      13.51       5.78
C      11.35       4.96       4.33
C      12.16      13.52       4.66
C      12.17       4.94       5.46
C      12.90      14.68       4.43
C      12.91       3.79       5.69
C      12.82      15.80       5.28
C      12.84       2.67       4.84
C      12.00      15.80       6.41
C      12.02       2.67       3.71
C       9.93      13.00       7.38
C       9.95       5.47       2.72
C       8.96      12.28       8.25
C       8.98       6.19       1.85
N      10.38      14.27       7.64
N      10.40       4.20       2.47
N      10.48      12.52       6.27
N      10.50       5.94       3.84
O      10.60       9.64       7.30
O      10.61       8.83       2.81
