13

Cu      10.88       8.16      20.93
Br       9.63      10.12      21.76
P      10.03       6.22      21.71
C       8.22       6.10      22.00
P      10.98       8.41      18.70
C      13.63       7.42      21.80
C      12.99       9.53      22.49
N      12.71       8.41      21.80
C      10.98      10.13      18.07
C      10.68       5.69      23.35
C      12.32       7.62      17.74
C       9.47       7.69      17.96
C      10.46       4.79      20.66
