23

Zn      19.91       8.24      23.70
Zn      23.13       8.33      23.85
Zn      21.43       7.25      26.36
Zn      21.63       5.52      23.69
O      21.52       7.34      24.40
C      21.54      10.35      22.40
O      20.39       9.84      22.66
O      19.78       8.10      27.01
C      21.52       4.31      26.41
O      18.69       8.80      25.13
O      22.93       8.21      27.19
O      21.44       5.42      27.06
O      24.14       8.96      25.41
O      21.60       4.19      25.14
O      18.92       7.04      22.50
O      24.34       7.22      22.77
O      22.68       9.91      22.77
O      20.12       5.10      22.51
O      23.27       5.19      22.67
C      24.23       6.00      22.40
C      23.92       8.83      26.66
C      18.81       8.66      26.40
C      19.14       5.83      22.15
