16

Cu       3.99       6.87       6.88
Si       7.98       6.87       6.88
C       5.16       6.87       9.60
C       2.83       6.87       9.61
N       3.99       8.93       6.88
N       4.00       4.82       6.88
N       3.99       6.87       4.82
N       4.00       6.87       8.93
F       6.25       6.88       6.87
F       1.74       6.87       6.88
C       5.15       9.61       6.88
C       2.82       9.60       6.88
C       5.16       4.15       6.88
C       2.83       4.14       6.88
C       5.15       6.87       4.14
C       2.82       6.87       4.15
