13

O       7.58       1.41       8.06
In       7.21       3.00       9.64
O       6.84       1.40      11.22
O       7.58       4.59      11.22
O       6.84       4.59       8.06
O       5.44       1.90       8.46
O       8.98       4.09       8.46
O       8.98       1.90      10.82
O       5.44       4.09      10.82
C       6.33       1.26       7.81
C       8.09       4.73       7.81
C       8.09       1.26      11.47
C       6.33       4.73      11.47
