18

Al       1.87       5.71       6.52
O       2.41       4.47       5.15
Al       5.22       5.70       6.52
O       2.41       4.47       7.88
O       5.76       6.94       5.15
O       5.76       6.94       7.88
C       3.54       4.13       4.69
O       3.55       6.51       6.52
O       0.20       4.91       6.52
C       0.20       7.29       4.68
C       3.54       4.13       8.35
H       3.56       7.48       6.52
C       0.20       7.29       8.35
H       0.21       3.94       6.52
O       4.68       4.46       5.15
O       4.68       4.47       7.89
O       1.33       6.95       7.89
O       1.33       6.95       5.15
