12

O       2.71       8.07      23.20
N       2.54       8.65      20.26
C       5.14      11.92      21.94
C       2.00      11.19      23.84
Cu       3.52       9.52      22.08
O       2.04      10.73      22.66
C       2.03       9.34      19.23
C       6.21       8.59      22.50
O       4.50      11.07      21.23
C       3.08       7.89      24.41
O       5.16       8.42      21.79
C       2.65       7.32      20.16
