14

O       2.65       4.50      10.20
Zn       3.67       4.06       8.60
Zn       2.20       5.22       6.65
O       1.51       5.61       8.60
O       4.38       6.00       8.26
C       1.66       5.22       9.79
O       4.89       3.06       7.47
C       4.03       6.97       7.52
O       2.05       2.85       7.87
C       4.65       3.34       6.23
C       1.04       2.93       7.11
O       3.12       6.94       6.61
O       3.79       4.19       5.83
O       0.78       3.92       6.33
