23

Zn       7.48       9.00      15.54
Zn       7.24      10.78      18.22
Zn       8.95      11.81      15.69
Zn       5.72      11.72      15.60
O       7.35      10.82      16.26
O       7.35       7.66      16.98
O       8.64      11.89      19.03
O      10.08      10.75      14.49
O       7.39       8.94      18.88
O       9.16       8.65      14.59
O      10.07      12.15      17.28
O       8.46      13.46      14.76
O       4.63      10.37      14.67
O       6.20      13.23      14.45
O       6.06       8.66      14.22
O       5.56      11.51      18.91
C       7.37       7.83      18.25
C       9.73      12.29      18.49
O       4.59      12.41      17.04
C      10.06       9.50      14.23
C       4.97       9.31      14.07
C       4.65      12.16      18.30
C       7.32      13.81      14.29
