81

Mn       3.41      12.18       6.29
Mn       1.06      10.10       7.40
Mn       5.75      10.18       5.05
H       0.82      14.57       1.80
H      -1.52      12.80      11.72
H       3.17       5.10       5.22
H       0.90      16.24       2.45
H      -1.45      11.40      12.84
H       3.24       4.83       3.46
H       2.41      15.35       2.09
H       0.07      12.16      12.25
H       4.75       4.95       4.40
H      -0.57      14.17       3.70
H      -2.92      11.35      10.42
H       1.77       6.94       4.62
H       0.31      13.47       5.07
H      -2.03      10.52       9.13
H       2.65       8.48       4.55
H       0.44      15.64       6.20
H      -1.90       8.45      10.45
H       2.78       8.37       2.09
H      -0.24      16.48       4.78
H      -2.59       9.27      11.88
H       2.10       6.72       2.08
H      -2.34      15.20       5.01
H      -4.68       9.70      10.66
H       0.00       7.56       3.08
H      -1.69      14.45       6.41
H      -4.03       8.87       9.31
H       0.65       9.15       3.03
H      -2.19      17.36       6.16
H      -4.54       7.63      11.95
H       0.15       7.48       0.63
H      -3.13      16.13       7.08
H      -5.47       7.45      10.43
H      -0.79       8.89       1.24
H      -1.47      16.56       7.60
H      -3.81       6.78      10.54
H       0.87       9.13       0.61
C       2.63      14.59       4.49
C       0.29      10.46      10.39
C       4.98       7.42       3.86
C       1.39      15.25       2.47
C      -0.96      11.88      11.97
C       3.73       5.33       4.31
C       0.19      14.37       4.47
C      -2.15      10.59      10.21
C       2.53       7.50       4.06
C      -0.25      15.54       5.36
C      -2.59       9.23      10.78
C       2.09       7.69       2.61
C      -2.13      16.42       6.73
C      -4.47       7.60      10.85
C       0.21       8.44       1.16
C       1.51      12.92       8.56
C      -0.83       7.77       6.91
C       3.85      11.77       3.28
C       6.26      12.54       7.44
C       3.92       8.93       7.14
C       1.58      10.99       4.16
N       1.44      14.69       3.80
N      -0.90      11.01      10.82
N       3.79       6.77       4.12
N      -1.63      15.34       5.87
N      -3.97       8.89      10.35
N       0.72       8.23       2.53
O       2.60      14.04       5.66
O       0.26       9.72       9.33
O       4.94       8.70       3.76
O       3.69      15.07       3.95
O       1.35      10.68      11.08
O       6.03       6.71       3.71
O       2.12      11.91       7.95
O      -0.22       8.81       6.34
O       4.46      11.75       4.46
O      -0.36      11.55       6.76
O       4.32      10.02       6.62
O       1.98      10.90       5.37
O       5.07      13.02       7.28
O       2.73       8.83       7.64
O       7.41      10.61       3.83
