23

Zn       9.21      15.60       0.74
Zn      10.84      18.38       0.60
Zn       7.65      18.39       0.62
Zn       9.21      17.30      -1.96
C      11.79      16.07       2.15
C       9.26      20.49       1.93
C       6.68      16.05       2.16
C       6.68      18.78      -2.16
C       9.22      14.34      -1.93
C      11.79      18.77      -2.15
O       9.24      17.42      -0.00
O      10.81      15.31       1.85
O      10.40      20.01       1.62
O       6.55      17.26       1.78
O      11.97      17.28       1.77
O       7.63      15.26       1.86
O       8.11      20.01       1.63
O       6.55      18.96      -0.91
O       9.21      15.44      -2.59
O       7.63      18.16      -2.75
O       9.22      14.22      -0.65
O      11.97      18.96      -0.90
O      10.81      18.17      -2.70
