18

Mg       3.48      21.79      11.83
Mg       5.75      20.10      11.13
Mg       1.22      20.33      12.95
O       0.35      19.95       9.69
O       1.94      20.66      11.08
O       4.39      21.19      10.11
C       3.81      21.01       8.92
C       1.52      20.39       9.88
C      -0.72      17.96      13.27
C       3.79      19.11      13.32
O       2.61      19.16      13.80
O       4.21      20.01      12.49
C       1.54      23.25      13.73
O      -0.15      18.91      12.51
C       6.06      22.72      12.71
O       4.88      23.11      12.42
O      -0.33      21.55      12.35
O       2.12      22.13      13.29
