23

Zn       2.88       7.58       8.26
Zn       4.89       9.98       8.62
Zn       4.84       7.60      10.80
O       3.39       5.68       8.44
Zn       2.49       9.71      10.71
O       4.32      11.83       8.93
O       4.87       9.70       6.69
O       2.69      11.66      10.53
O       4.82       5.72      10.21
O       4.20       7.63      12.64
C       3.44      12.29       9.72
C       4.13       5.14       9.32
C       4.11       8.95       5.97
C       3.39       8.43      13.20
C       7.30       9.00      10.00
C       0.25       8.42       9.28
O       3.78       8.71       9.60
O       6.76       9.84       9.22
O       0.68       9.21      10.18
O       6.73       8.15      10.75
O       0.96       7.67       8.52
O       3.30       8.06       6.41
O       2.73       9.36      12.63
