18

Al       4.09      16.25       0.05
Al       0.62      16.23       0.02
O       1.21      15.31      -1.55
O       3.50      14.76       1.14
O       4.70      17.17       1.61
O       3.49      15.37      -1.51
O       4.71      17.69      -1.07
O       1.20      14.75       1.12
O       2.35      17.03       0.27
O       7.00      17.65      -1.11
O       6.99      17.20       1.58
O       5.85      15.44      -0.09
H       2.34      17.61       1.06
H       5.84      14.53       0.25
C       2.35      14.34       1.50
C       2.37      15.05      -2.01
C       5.85      18.09      -1.45
C       5.84      17.45       2.08
