11

Cd       2.71       3.33       6.99
O       3.29       1.90       8.68
O       3.29       4.77       5.31
C       1.29       4.22       9.74
C       0.13       5.03       7.91
C       1.29       2.45       4.24
C       0.13       1.64       6.07
C       4.21       1.29       8.01
N       1.10       4.24       8.41
N       1.10       2.42       5.58
C       4.21       5.37       5.97
