17

C      -0.86       5.91       3.93
C       1.00       4.60       2.60
N      -1.64       5.73       0.65
N       1.08       3.80       5.88
N      -3.51       4.25       5.27
N       0.30       1.55       1.26
N      -3.62       2.62       1.74
N      -1.19       0.90       4.79
N      -0.85       7.03       4.29
N       2.05       4.99       2.24
W      -0.92       3.86       3.27
C      -1.40       5.01       1.56
C       0.32       3.79       4.97
C      -2.57       4.18       4.56
C      -0.07       2.41       1.97
C      -2.67       3.03       2.29
C      -1.12       1.94       4.24
