36

In      -0.17       3.48       5.87
C      -1.12      -1.37       7.82
In      -0.50      10.44       5.87
In      -0.33       6.96       6.56
In       0.00       0.00       5.17
C      -1.45       5.59       3.91
C       1.99       2.05       3.94
C      -1.98      -2.04       3.94
H      -2.32       8.54       6.00
H      -1.99       1.59       5.74
C       0.78       8.33       3.92
O       0.88       5.21       6.57
O       0.49       2.48       7.71
O       1.36       0.56       6.86
O      -1.70       6.02       7.98
O      -1.97       3.98       7.00
H       1.66       5.37       6.00
O       1.03       7.90       7.97
O       1.30       9.94       7.00
H       1.99      -1.58       5.74
O      -1.55       8.71       6.56
O      -1.16      11.44       7.71
O      -1.35      -0.55       6.86
O      -1.22       1.75       5.17
O      -0.82       4.48       4.03
O      -1.69       6.40       4.87
C       1.12       1.37       7.82
C      -2.32       4.91       7.80
O       1.37       0.94       3.76
O       1.64       2.98       4.74
O      -1.37      -0.94       3.76
O      -2.30      10.93       4.73
O       1.22      -1.75       5.17
O       0.15       9.43       4.03
O       1.02       7.51       4.87
C       1.65       9.00       7.80
