23

Zn      -3.27      13.10       0.78
Zn      -3.78      11.63      -1.91
Zn      -2.02      10.10       0.23
Zn      -5.03      10.47       0.91
O      -3.52      11.32       0.00
O      -3.14      14.55      -0.54
O      -2.17      11.00      -2.86
O      -0.56      11.13       1.05
O      -3.91      13.53      -2.42
O      -1.56      13.05       1.77
O      -1.64       9.26      -1.51
O      -2.39       8.57       1.41
O      -5.41      11.48       2.55
O      -4.66       8.65       1.55
O      -4.88      13.55       1.82
O      -5.48      10.77      -2.41
O      -6.49      10.34      -0.40
C      -3.52      14.55      -1.76
C      -1.57       9.89      -2.63
C      -0.58      12.24       1.68
C      -3.52       8.10       1.76
C      -5.47      12.76       2.63
C      -6.46      10.41      -1.68
