20

Zn       6.48       5.64       3.41
Zn       3.63       5.66       3.45
C       4.88       3.07       3.35
C       5.22       5.81       0.87
C       4.90       8.22       3.50
C       5.24       5.18       5.93
C       9.39       6.32       4.33
C      10.81       4.97       2.47
C      10.80       6.28       4.36
C       9.40       4.95       2.47
N       8.71       5.63       3.40
N      11.50       5.62       3.42
O       5.89       3.63       2.84
O       3.86       3.68       3.81
O       4.13       5.50       1.45
O       6.32       6.12       1.46
O       3.83       7.64       3.15
O       5.96       7.63       3.89
O       6.30       4.90       5.29
O       4.26       5.84       5.47
