18

Al      -0.60       6.36      10.99
C      -2.23       8.13      12.64
Al      -3.91       6.30      11.01
C      -2.26       4.48      12.53
C       1.02       4.52       9.42
C       1.11       8.20       9.42
O      -3.41       4.82      12.10
O      -1.10       7.83      12.14
O      -0.03       7.70       9.69
O      -1.17       5.07      12.27
O      -0.10       4.96       9.81
O      -3.34       7.55      12.41
O      -2.27       6.40      10.17
O       2.15       5.02       9.72
O       2.24       7.78       9.82
O       1.06       6.38      11.82
H      -2.29       6.99       9.39
H       1.07       6.92      12.62
