20

Zn       6.13      15.31       7.12
Zn       7.67      17.46       6.04
C       4.90      16.72       4.94
C       7.55      20.18       4.90
C       9.73      19.42       5.11
C       8.17      14.80       4.94
C       8.90      16.05       8.22
C       6.25      12.59       8.27
C       4.07      13.35       8.06
C       5.64      17.97       8.23
N       8.41      19.21       5.24
N       5.39      13.56       7.92
O       4.71      15.71       5.68
O       5.93      17.47       4.94
O       7.23      14.34       5.66
O       8.51      16.03       4.84
O       9.10      17.06       7.48
O       7.88      15.30       8.22
O       6.57      18.43       7.50
O       5.29      16.74       8.32
