18

Al       2.10       0.96      20.31
Al       5.44       0.89      20.47
C       3.73      -1.05      21.81
C       0.39       2.90      18.96
C       3.73       2.58      22.16
C       0.40      -0.73      18.61
O       3.80       1.04      19.59
O       1.54       2.39      19.14
O       4.88       2.15      21.82
O       1.55      -0.30      18.95
O       2.64      -0.58      21.31
O       5.98       2.42      19.46
H       3.87       1.42      18.70
H       0.53       0.43      22.08
O       2.60       2.20      21.71
O       4.88      -0.54      21.63
O       5.94      -0.36      19.06
O       0.46       0.81      21.19
