15

N      18.27       6.08       3.71
N      17.32       6.12       2.72
Cu      15.91       4.93       2.78
Cu      18.09       4.81       5.04
N      14.51       3.73       2.73
N      18.00       3.51       6.34
N      14.51       2.65       3.58
Cu      15.81       2.57       4.89
N      17.09       2.49       6.22
C      17.68       7.04       1.82
C      19.22       6.99       3.41
C      13.49       1.84       3.23
C      13.48       3.58       1.87
C      18.81       3.23       7.38
C      17.34       1.58       7.19
