14

Cr      24.00       2.99       8.45
Cr      23.08       2.45       6.93
C      21.32       3.49       8.77
O      24.65       1.78       5.97
O      21.31       3.01       7.58
C      25.76       1.95       6.60
O      24.40       4.79       7.80
C      23.10       0.41       8.77
O      22.43       3.65       9.41
O      23.80       1.29       9.41
C      23.98       5.02       6.60
O      25.77       2.43       7.80
O      22.68       0.65       7.58
O      23.29       4.15       5.97
