10

Al       3.97       5.04       2.91
C       5.95       6.81       3.94
C       5.95       3.26       3.93
C       5.95       5.04       0.86
O       5.02       4.39       1.44
O       5.02       6.63       3.09
O       5.02       4.09       4.20
O       2.91       5.69       1.45
O       2.91       3.45       3.08
O       2.91       5.98       4.20
