10

Al       0.01      25.19       8.73
O      -1.04      24.21       7.46
O      -1.04      24.58      10.21
O      -1.04      26.78       8.51
O       1.07      23.59       8.60
O       1.07      26.10       7.40
O       1.07      25.88      10.18
C      -1.97      23.39       7.74
C      -1.97      25.24      10.78
C      -1.97      26.94       7.66
