19

Zn      -1.51      -2.15      10.97
N      -3.32      -3.64      10.87
C      -3.75       0.03      10.33
N      -1.20      -3.20       9.26
C      -2.40      -0.50       8.53
N      -0.20      -3.20       8.38
C      -4.42      -3.77      11.62
N      -0.28      -3.62      12.06
C      -3.16      -4.50       9.83
C      -1.98      -4.28       9.01
C      -0.34      -3.61      13.41
C       0.67      -4.36      11.47
C       1.35      -0.58      10.13
N       0.29      -0.67      10.93
C       0.13       0.27      11.89
N      -1.80      -1.00      12.63
C      -1.03       0.11      12.75
N      -2.80      -0.90      13.52
N      -2.69      -0.63       9.84
