18

Zn       7.74       5.89       8.07
Zn       8.16       8.68       8.08
C       7.93       7.28      10.67
C       7.14       2.76       8.11
C       8.75      11.80       8.04
C      10.51       6.74       8.09
C       5.39       7.82       8.06
N       8.63      10.65       8.05
N       7.27       3.92       8.09
O       7.79       6.15      10.10
C       7.97       7.29       5.47
O       8.11       8.42       6.05
O       8.07       8.41      10.10
O       7.82       6.16       6.04
O       9.80       5.68       8.08
O       6.09       8.88       8.06
O      10.09       7.95       8.09
O       5.80       6.62       8.05
