15

Cu      12.48      10.94      17.92
Cu      13.63       9.97      15.23
Cu      12.34       7.87      17.31
C      13.39       7.59      13.55
C      10.48      10.15      19.91
C      12.96       6.07      15.10
N      14.14      11.65      15.80
N      13.71      12.01      17.05
N      11.35       9.88      18.91
N      11.45       8.52      18.80
N      13.00       7.28      15.70
N      13.28       8.23      14.73
C      14.46      13.04      17.48
C      15.15      12.48      15.46
C      10.66       7.96      19.74
