23

Zn       7.61       9.04      15.58
Zn       7.43      10.84      18.25
Zn       9.07      11.90      15.70
Zn       5.89      11.78      15.61
O       7.50      10.87      16.28
O       7.57       7.71      17.03
O       8.94      11.79      19.09
O      10.29      10.80      14.64
O       7.46       9.00      18.91
O       9.26       8.76      14.53
O      10.08      12.54      17.26
O       8.61      13.48      14.64
O       4.90      10.56      14.43
O       6.33      13.38      14.56
O       6.09       8.62      14.37
O       5.80      11.69      18.93
O       4.67      12.34      17.04
C       7.51       7.89      18.30
C       9.90      12.41      18.51
C      10.21       9.58      14.28
C       7.45      13.91      14.28
C       5.11       9.37      14.04
C       4.82      12.22      18.31
