18

Al      -2.70       2.74       8.55
Al       0.64       2.77       8.59
H      -1.00       1.38       7.50
H      -4.33       3.33      10.22
O      -3.19       0.86       8.46
O      -5.53       3.33       6.83
O       0.03       4.53       8.93
O      -2.12       2.45      10.39
O      -2.20       4.59       8.60
O       0.14       2.24      10.39
O      -5.44       0.97       8.21
O      -3.29       2.97       6.76
C      -4.35       0.33       8.33
C      -4.41       3.24       6.21
C      -1.07       5.15       8.77
C      -1.01       2.16      10.94
O      -1.02       2.25       7.92
O      -4.35       3.20       9.26
