20

Zn       5.74       7.99      11.88
Zn       8.68       7.89      11.88
C       7.21       5.42      11.58
C       7.21      10.46      12.18
C       7.23       8.32       9.19
C       7.19       7.56      14.57
C       2.98       8.28      10.75
C      11.45       7.60      13.01
C       2.98       7.55      12.98
C      11.44       8.33      10.78
N       3.66       7.92      11.86
N      10.77       7.96      11.90
O       6.12       6.07      11.48
O       8.30       9.82      12.27
O       6.04       9.96      12.17
O       8.38       5.93      11.60
O       6.11       8.38       9.82
O       8.31       7.51      13.94
O       6.09       7.62      13.92
O       8.33       8.26       9.84
