18

Mg       3.44      13.20       8.36
Mg       1.15      11.75       7.25
Mg       5.73      13.43       6.55
C       7.72      12.56       4.33
C       5.42      15.55       8.71
O       6.60      10.44       7.83
O       4.31      13.58       5.13
O       2.02      14.35       9.20
O       4.98      11.97       7.73
O       2.69      12.90       6.50
O       0.40      13.50       7.92
O       2.55      11.38       8.67
O       7.13      12.38       5.52
O       4.84      14.61       7.96
C       5.42      10.81       8.10
C       3.13      13.16       5.31
C       0.83      14.40       8.74
C       3.13      10.26       9.11
