18

Al       0.69       4.48       8.69
Al      -2.66       4.48       8.71
H      -0.99       5.51       7.31
H       2.39       3.26       9.95
O      -0.98       5.13       8.20
O       2.35       3.87       9.18
C       2.35       6.91       9.05
C       2.38       4.75       6.29
C      -1.02       2.06       8.45
C      -0.97       4.19      11.10
O       0.13       2.60       8.34
O       1.20       6.38       9.18
O      -3.23       6.30       8.88
O       1.26       4.81       6.91
O      -3.16       4.57       6.84
O      -2.13       2.67       8.45
O       0.13       4.25      10.46
O      -2.12       4.37      10.58
