13

C       2.87       5.91      40.19
N       4.79       2.71      39.43
C       5.60       3.61      38.77
N       2.79       2.55      42.04
C       0.48       1.38      39.30
C       2.09       1.02      37.89
C       1.37       5.23      38.78
N       2.33       4.80      39.68
N       1.77       1.66      39.07
Zn       2.91       2.94      40.09
C       2.35       1.41      42.60
C       3.20       3.34      43.09
C       5.45       1.54      39.39
