34

Cu       6.48      14.02       1.03
Cu       6.58      16.84      -0.69
C       4.28      15.36      -1.69
C       5.59      11.70       2.47
Cu       9.16      18.56      -1.03
Cu       9.06      15.75       0.69
C       5.81      15.95      -3.34
C       6.54      12.42      -1.44
C       6.18      19.61      -1.28
H       8.06      18.19       1.05
C       9.80      16.22      -2.21
C      11.40      19.06      -2.91
C      10.04      20.89      -2.47
C      11.35      17.23       1.69
C       9.82      16.64       3.34
N       5.30      13.00       2.28
N       5.41      16.00      -2.06
N      10.34      19.59      -2.28
H       7.58      14.40      -1.05
N      10.22      16.59       2.06
O       9.68      19.93       0.32
O       8.28      12.87       1.71
O      10.00      14.04       0.80
O       6.73      15.45       2.42
O       8.15      17.50       0.30
O       5.95      12.66      -0.32
O       7.35      19.72      -1.71
O       5.63      18.55      -0.80
C       9.10      20.17       1.44
C       9.45      12.98       1.28
O       8.90      17.14      -2.42
O       7.49      15.09      -0.30
C       5.84      16.37       2.21
C       4.24      13.53       2.91
