18

Zn       5.96       8.05       9.65
Zn       8.80       8.05       9.66
O       6.26      10.10       9.66
O       8.54      10.09       9.62
O       6.26       7.99      11.66
O       8.53       8.09      11.69
O       6.18       5.98       9.63
C       2.77       8.07       9.68
C      11.99       8.03       9.71
C       7.33       5.44       9.66
C       7.40      10.65       9.63
C       7.41       8.00       7.05
O       8.46       6.01       9.69
O       6.28       8.03       7.63
O       8.55       8.01       7.62
C       7.39       8.01      12.25
N       3.93       8.07       9.65
N      10.83       8.02       9.68
