9

Zn       5.28       4.19       8.43
C       4.33       2.81      10.93
C       8.17       3.95       7.72
C       7.87       5.56       9.35
C       5.68       1.47       9.61
I       4.90       3.06       6.17
I       4.00       6.20       9.37
N       5.10       2.66       9.84
N       7.34       4.63       8.53
