20

O       7.66       8.20       2.12
O       7.66       5.93       2.14
Zn       5.63       8.41       2.12
Zn       5.62       5.63       2.14
C       5.56       6.99      -0.50
C       2.95       7.02       2.13
C       5.62       7.04       4.75
C       8.24       7.07       2.13
C       6.42      11.14       2.92
C       4.78       2.90       1.31
C       6.43       2.88       2.93
C       4.78      11.15       1.29
N       5.60      10.46       2.10
N       5.61       3.57       2.13
O       5.55       8.12       0.09
O       5.58       5.85       0.08
O       3.55       5.90       2.12
O       3.55       8.17       2.14
O       5.61       5.90       4.18
O       5.63       8.17       4.16
