21

Cd       5.14      23.69      16.26
C       2.19      24.62      17.60
Cd       7.98      25.55      16.26
Cd       2.19      24.62      14.79
C       6.56      24.62      18.88
O       8.90      27.45      15.64
O       1.98      26.78      14.44
O       4.45      24.76      14.05
O       5.78      25.86      15.45
C       3.26      21.62      14.81
O       3.26      24.90      16.96
C       7.94      23.47      14.32
O       4.22      21.80      15.64
O       2.39      22.47      14.44
O      -0.08      24.49      14.05
O       7.34      23.38      15.45
O       9.86      24.35      16.96
O       5.99      23.63      18.30
O       7.13      25.61      18.30
C       9.86      27.63      14.81
C       5.18      25.78      14.32
