28

Co      10.93       5.32       0.00
H      15.40       5.38       2.17
H       6.47       5.38       2.17
H       6.47       5.38      -2.17
H      15.40       5.38      -2.17
H      12.93       5.35       2.07
H       8.94       5.35       2.07
H       8.94       5.36      -2.07
H      12.93       5.36      -2.07
C      14.92       5.37       1.20
C       6.95       5.37       1.20
C       6.95       5.37      -1.19
C      14.92       5.37      -1.19
C      10.93       2.91      -0.00
C      13.53       5.35       1.16
C       8.33       5.35       1.16
C       8.33       5.35      -1.16
C      13.53       5.35      -1.16
C      15.66       5.38       0.00
C       6.21       5.38       0.00
C      10.93       7.66       1.92
C      10.93       7.66      -1.92
N      12.85       5.34       0.00
N       9.02       5.34       0.00
O      10.93       6.37       1.59
O      10.93       6.38      -1.59
O      10.93       3.59      -1.09
O      10.93       3.59       1.09
