24

Cd       6.93       7.48       1.29
N       6.93       3.72      -1.40
Cd       8.84       5.08      -1.29
N      10.60       6.64      -1.40
C       5.70       4.21      -1.66
N       8.85       8.84       1.40
C       7.07       2.39      -1.24
C      10.39       7.94      -1.66
C      11.86       6.20      -1.24
O       6.90       7.52       3.58
O       5.98       8.67      -0.58
O       7.32       6.99      -1.16
O       9.79       3.89       0.58
O       8.45       5.57       1.16
O       8.87       5.04      -3.58
C      10.07       8.35       1.66
C       8.70      10.17       1.24
C       6.11       8.52       3.74
C       5.38       4.62       1.66
C       3.92       6.36       1.24
C       6.55       7.96      -1.47
C       9.23       4.60       1.47
C       9.67       4.04      -3.74
N       5.18       5.92       1.40
