20

Zn       6.95       9.17      14.45
Zn       9.73       9.13      14.38
O       7.40      11.14      14.88
O       9.59      11.18      14.28
O       9.31       9.07      12.36
O       7.11       9.63      12.46
O       9.49       7.09      14.51
O       7.28       7.17      13.98
O       7.20       8.71      16.43
O       9.41       9.23      16.41
C       8.48      11.74      14.56
C       8.19       9.38      11.84
C       8.37       6.55      14.23
C       8.31       8.99      17.00
C      12.47      10.06      13.67
C      12.48       8.11      14.92
C       4.22       9.67      13.39
C       4.20       8.70      15.50
N      11.79       9.09      14.30
N       4.89       9.19      14.46
