20

Zn       5.74       8.63       8.85
O       6.24      10.61       9.31
O       5.99       8.12      10.84
O       8.40      10.72       8.68
Zn       8.75       8.74       8.94
O       8.16       8.77      10.97
C       7.36       6.10       8.88
C       7.23       8.97       6.32
C       7.26      11.26       8.91
C       7.06       8.39      11.47
C      11.59       8.17       8.04
C      11.51       9.62       9.89
C       2.90       9.15       9.80
C       2.97       7.82       7.86
N      10.87       8.82       8.99
N       3.61       8.56       8.81
O       6.29       6.65       8.44
O       8.43       6.75       9.14
O       8.32       8.66       6.88
O       6.10       9.17       6.88
