18

Al       6.38       6.44       6.04
Al       3.02       6.44       6.04
H       4.70       5.26       7.39
H       8.07       7.58       4.65
O       6.89       6.83       7.81
O       9.23       4.61       5.85
O       3.63       6.44       4.19
O       5.77       8.27       5.85
O       5.87       6.06       4.26
O       3.54       8.27       6.23
O       9.14       6.44       7.88
O       7.00       4.61       6.22
C       8.02       6.76       8.43
C       8.10       4.00       6.03
C       4.74       6.12       3.64
C       4.67       8.88       6.04
O       4.70       5.89       6.65
O       8.07       7.00       5.42
