15

O       5.86       2.94       0.45
Mg       7.52       3.78       1.36
C       9.73       5.61       1.04
O       6.38       4.84       2.72
O       9.32       4.73       1.88
O       7.88       2.31       2.75
C       8.73       5.97      -0.07
C       6.11       1.98      -0.38
H       8.77       1.82       2.76
H       7.34       2.00       3.50
O       8.41       2.51      -0.04
H       5.85       5.59       2.40
H       5.77       4.24       3.27
O       7.61       5.38      -0.00
C       7.60       1.73      -0.63
