12

Zn       1.64       1.94      32.99
C       4.43       2.71      33.53
C       4.47       0.83      32.41
C      -0.14       3.97      31.85
C       0.40      -0.74      33.32
C       1.25       3.33      30.31
C       1.01      -0.57      31.24
N       3.64       1.76      33.00
N       0.96       0.10      32.45
C       1.35       3.14      35.42
N       0.95       3.21      31.66
O       0.87       2.10      34.80
