18

Al       2.93      -2.37       7.24
Al      -0.41      -2.41       7.24
H       1.26      -1.35       5.78
H       4.54      -3.80       8.30
O       3.43      -2.77       5.42
O       5.77      -0.54       7.26
O       0.20      -2.23       9.02
O       2.37      -4.19       7.51
O       2.43      -1.87       9.01
O       0.12      -4.28       7.21
O       5.69      -2.63       5.43
O       3.52      -0.58       6.99
O       1.25      -1.90       6.58
O       4.60      -2.92       7.89
C       4.56      -2.86       4.84
C       4.62       0.03       7.12
C       1.29      -1.84       9.59
C       1.29      -4.83       7.35
