9

Zn       8.86       0.53      17.02
C       7.59      -1.96      18.05
C       6.80      -1.41      15.93
C       6.62       2.06      18.24
N       7.60      -1.14      16.98
N       7.91       1.73      18.43
C       8.56       2.21      19.51
I       8.68       1.74      14.79
I      11.00      -0.32      18.17
