15

N       6.85       3.40      21.70
N       4.19       3.45      19.15
N       3.30       4.49      19.10
Cu       5.63       5.73      22.61
Cu       3.36       5.80      20.40
Cu       5.51       3.45      20.43
C       4.17       8.10      23.51
C       2.54       8.12      22.01
C       7.84       2.52      21.96
C       7.89       4.10      23.51
C       2.45       4.27      18.07
C       3.88       2.59      18.17
N       3.37       7.10      21.71
N       4.38       7.08      22.64
N       6.88       4.38      22.66
