18

Al       6.75       6.72       0.00
O       3.92       7.95      -1.36
Al      10.12       6.72       0.00
O       6.20       7.94       1.37
H       8.43       8.49      -0.02
H       5.06       4.95      -0.00
O       9.57       5.48      -1.36
O       7.30       5.48       1.36
O       7.29       5.49      -1.37
O       9.57       5.49       1.38
O       3.93       7.95       1.37
O       6.19       7.96      -1.36
O       8.43       7.52       0.00
O       5.06       5.91       0.00
C       5.07       8.30       1.83
C       5.06       8.30      -1.82
C       8.43       5.14      -1.83
C       8.43       5.14       1.83
