11

Zn       1.26       5.48      15.28
O       1.89       7.31      14.83
C       2.01       4.58      17.99
C      -0.71       4.77      13.16
C       2.87       3.85      13.68
N      -0.44       4.77      14.46
O       2.76       4.26      14.92
C      -1.58       4.33      15.12
C       0.05       5.55      18.16
C       0.90       8.13      15.01
N       1.06       5.17      17.28
