20

Zn       5.91       5.71       7.63
Zn       5.85       8.48       7.65
C       6.10       7.12      10.26
C       5.80       7.10       5.01
C       6.48      11.19       8.69
C       4.93       2.99       6.99
C       8.49       7.04       7.57
C       3.27       7.10       7.72
C       5.44      11.22       6.63
C       6.81       2.97       8.33
N       5.93      10.53       7.66
N       5.88       3.66       7.66
O       6.23       6.01       9.65
O       5.87       8.22       5.62
O       5.82       8.24       9.71
O       5.73       5.96       5.59
O       7.96       5.89       7.42
O       3.80       8.25       7.64
O       7.88       8.14       7.74
O       3.89       5.99       7.79
