12

Ni       9.96       1.24       0.40
C      10.96      -0.35      -1.56
C      10.90       1.04      -2.17
C       8.69      -0.78       2.00
C       9.65       0.94       3.22
H      11.54       2.38      -0.79
C       7.98       2.98       1.27
C      10.02       4.03       0.96
O      10.48      -0.39      -0.32
N      10.63       2.04      -1.14
N       9.37       0.39       2.01
N       9.29       2.90       0.96
