23

Zn      23.31      18.75      17.01
Zn      21.76      19.70      14.35
Zn      20.08      18.68      16.87
Zn      21.58      21.49      16.97
O      21.70      19.65      16.30
O      24.51      18.19      15.56
O      20.25      18.77      13.47
O      20.55      17.10      17.92
O      23.40      18.88      13.67
O      22.84      17.15      18.05
O      19.09      18.04      15.29
O      18.85      19.76      17.94
C      24.38      18.33      14.29
C      19.28      18.16      14.04
O      24.33      19.95      18.20
C      21.68      16.64      18.30
O      21.74      21.54      13.67
C      24.08      21.16      18.54
C      21.67      22.66      14.28
C      18.97      20.99      18.29
O      23.09      21.86      18.17
O      19.94      21.77      18.00
O      21.59      22.84      15.55
