23

Zn       8.20       8.50      10.99
Zn       8.43       6.34       8.59
Zn       6.10       8.62       8.64
Zn       6.11       6.13      10.72
C       7.48       3.75       9.56
C       6.97      11.00      10.08
C      10.76       7.70       9.84
C       3.67       7.24       9.53
C       7.39       7.66       6.14
C       7.15       7.01      13.31
O       7.21       7.39       9.70
O       8.18       6.82       6.70
O       6.27       6.35      12.66
O       6.53       8.40       6.73
O       8.02       7.79      12.81
O      10.09       8.58      10.48
O       4.28       6.24      10.03
O       8.20       4.38       8.71
O       6.47      10.53       9.00
O       6.70       4.28      10.42
O       7.46      10.32      11.04
O      10.27       6.71       9.20
O       4.20       8.31       9.08
