10

Al       4.08       0.00      25.03
O       5.15      -1.57      24.69
C       2.04       1.88      24.09
C       6.12      -1.75      23.87
O       5.15       0.49      26.56
C       6.12      -0.12      27.12
O       3.01       1.60      24.88
O       3.01      -0.93      23.72
O       3.01      -0.67      26.49
O       5.15       1.08      23.83
