23

Zn       7.80       7.95       7.43
Zn       9.90       7.58       9.72
Zn       8.03      10.18       9.76
Zn      10.37       9.97       7.69
C      12.56       8.54       9.05
C       5.47       9.14       8.81
C       8.66       5.30       8.36
C       9.32      12.53       8.72
C       8.94       8.89      12.11
C       9.22       9.17       5.11
O       9.01       8.93       8.61
O       8.89       7.77      11.45
O      10.03       9.91       5.78
O       8.85      10.04      11.57
O       8.32       8.40       5.60
O       7.79       5.99       7.73
O      10.39      11.84       8.44
O      11.83       7.88       9.85
O       6.12       9.77       9.71
O      12.17       9.36       8.15
O       5.94       8.43       7.87
O       9.64       5.77       9.04
O       8.21      12.01       9.05
