20

Zn       6.78      11.34       2.33
Zn       9.55      10.87       1.82
C       8.40      13.71       2.14
C       7.92      11.21      -0.56
C       7.93       8.53       1.97
C       8.40      11.04       4.67
C       4.03      10.78       3.29
C      12.30       9.88       2.32
C       4.09      11.85       1.22
C      12.23      11.99       1.38
N       4.74      11.36       2.30
N      11.58      10.89       1.80
O       7.17      13.38       2.21
O       9.15      11.11      -0.23
O       9.10       8.90       1.64
O       7.22      11.39       4.32
O       9.39      12.91       2.00
O       6.93      11.28       0.25
O       6.98       9.30       2.36
O       9.35      10.71       3.88
