13

C       6.63      16.54       4.77
Cd       8.30      13.75       4.96
C      10.27      14.00       6.83
O      10.54      14.04       5.57
N       8.89      13.41       2.76
N       7.70      15.95       5.31
C       8.49      12.33       2.00
C       8.10      16.71       6.39
O       7.49      11.43       4.91
O       9.10      13.80       7.28
O       6.05      13.14       4.68
C       6.32      11.89       4.72
C       9.96      13.95       2.18
