20

Zn       5.08       5.70       5.52
Zn       7.89       5.36       5.68
H       2.81       6.80       4.75
H      -0.06       4.26       6.44
C       6.79       5.80       3.03
C       6.33       2.93       5.31
C       6.18       5.27       8.16
C       0.68       5.79       5.50
C       2.08       5.27       5.69
C       6.64       8.13       5.88
N      -0.32       5.13       5.96
N       3.08       5.93       5.23
O       5.66       6.01       3.58
O       7.31       5.05       7.62
O       7.90       5.62       3.64
O       5.07       5.44       7.55
O       5.43       7.73       5.87
O       7.53       3.33       5.32
O       7.68       7.41       5.88
O       5.29       3.65       5.32
