18

Al       1.42      19.11       6.38
C       3.09      20.91       7.99
Al       4.76      19.12       6.37
C      -0.26      17.32       4.77
H      -0.25      20.87       6.19
O       4.22      20.51       7.59
O       0.88      17.72       5.16
O       1.94      20.22       4.89
O      -1.40      18.01       7.86
O       1.95      20.49       7.63
O      -1.39      17.75       5.13
O       0.88      18.01       7.86
O       4.23      20.22       4.89
O       3.09      18.33       6.45
O      -0.25      19.91       6.30
C       3.08      20.54       4.42
H       3.09      17.36       6.56
C      -0.26      17.70       8.33
