23

Zn       1.67       6.20       6.87
Zn      -1.54       6.27       6.92
Zn       0.05       5.27       9.46
Zn       0.07       3.45       6.85
O       0.06       5.29       7.51
O      -1.58       3.08       5.86
O       1.26       7.60       5.55
O       2.73       6.93       8.36
O      -0.98       7.84       5.90
O       0.25       3.44      10.14
O      -2.54       6.99       8.45
O       1.55       3.14       5.58
O      -1.68       5.83      10.20
O       2.90       4.91       6.03
O       0.26       2.12       8.28
O      -2.67       5.09       5.85
O       1.52       6.34      10.20
C      -2.53       3.86       5.52
C       2.54       6.85       9.62
C       0.13       8.18       5.38
C       0.24       2.31       9.55
C      -2.55       6.63       9.67
C       2.64       3.81       5.44
