12

O      -0.14      10.51      19.05
C       0.97       7.98      20.84
Cu       1.98       9.78      19.00
C       2.01       9.72      21.98
N       1.71       9.11      20.84
C      -0.77      11.54      19.40
N       2.49      10.10      17.11
O       1.30       7.98      18.50
C       3.38       9.26      16.55
C       2.08      11.18      16.43
O       2.74      11.59      19.55
C       0.77       7.34      19.49
