78

Cu       3.09      12.55       0.19
Cu       1.28      14.67      -0.19
P       3.41      10.61      -0.82
P       0.96      16.60       0.82
H       5.88      10.81       0.63
H      -1.50      16.41      -0.63
H       8.27      10.58       0.01
H      -3.89      16.63      -0.01
H       8.91      10.09      -2.34
H      -4.53      17.12       2.34
H       7.14       9.80      -4.08
H      -2.76      17.42       4.08
H       4.75      10.00      -3.46
H      -0.37      17.22       3.46
H       2.11      12.37      -2.69
H       2.27      14.84       2.69
H       0.88      12.01      -4.82
H       3.49      15.21       4.82
H       0.48       9.68      -5.64
H       3.90      17.54       5.64
H       1.29       7.75      -4.34
H       3.08      19.47       4.34
H       2.57       8.11      -2.22
H       1.80      19.10       2.22
H       4.84       7.99      -0.62
H      -0.47      19.23       0.62
H       4.47       6.00       0.83
H      -0.10      21.21      -0.83
H       2.63       5.99       2.49
H       1.74      21.22      -2.49
H       1.11       7.96       2.67
H       3.26      19.25      -2.67
H       1.47       9.95       1.22
H       2.90      17.27      -1.22
C       4.09      12.53       2.95
C       0.28      14.69      -2.95
C       5.59      13.54       1.51
C      -1.21      13.67      -1.51
C       5.15      10.42      -1.38
C      -0.77      16.79       1.38
C       6.15      10.58      -0.40
C      -1.78      16.64       0.40
C       7.50      10.45      -0.75
C      -3.12      16.77       0.75
C       7.86      10.17      -2.07
C      -3.48      17.04       2.07
C       6.87      10.02      -3.04
C      -2.49      17.20       3.04
C       5.51      10.14      -2.70
C      -1.14      17.08       2.70
C       2.44      10.27      -2.33
C       1.93      16.94       2.33
C       1.95      11.36      -3.07
C       2.43      15.85       3.07
C       1.26      11.15      -4.26
C       3.12      16.06       4.26
C       1.03       9.85      -4.72
C       3.34      17.36       4.72
C       1.50       8.76      -3.98
C       2.87      18.46       3.98
C       2.21       8.97      -2.80
C       2.16      18.25       2.80
C       3.18       9.11       0.20
C       1.19      18.11      -0.20
C       4.03       7.99       0.10
C       0.35      19.23      -0.10
C       3.82       6.87       0.92
C       0.55      20.34      -0.92
C       2.78       6.86       1.85
C       1.59      20.35      -1.85
C       1.93       7.97       1.95
C       2.44      19.25      -1.95
C       2.13       9.08       1.13
C       2.25      18.13      -1.13
I       0.72      12.65       1.45
I       3.65      14.57      -1.45
N       4.40      12.95       1.70
N      -0.02      14.27      -1.70
