23

Zn       7.83       9.09      15.66
Zn       7.63      10.87      18.32
Zn       9.33      11.92      15.78
Zn       6.13      11.83      15.66
O       7.73      10.93      16.36
O       7.81       7.76      17.11
C       7.73       7.92      18.38
C      10.43       9.59      14.35
C       5.32       9.43      14.12
O       9.47       8.79      14.63
O       9.16      11.82      19.11
O       7.65       9.03      19.01
O      10.34      12.54      17.35
O       8.86      13.49      14.70
O       6.30       8.72      14.49
O       6.00      11.71      19.01
O       5.12      10.63      14.49
O       6.58      13.44      14.63
O       4.93      12.41      17.11
C      10.14      12.43      18.60
C       7.72      13.94      14.35
O      10.54      10.82      14.70
C       5.04      12.27      18.38
