23

Zn      22.40       7.82       0.52
Zn      23.90      10.66       0.70
Zn      25.60       7.96       0.71
Zn      24.08       8.87      -1.98
C      21.30      10.13       2.00
C      26.40      10.35       2.24
C      24.00       5.84       2.01
C      26.68       7.47      -2.01
C      21.59       7.31      -2.27
C      23.96      11.84      -2.01
O      23.99       8.83      -0.01
O      21.21       8.91       1.65
O      25.40      11.06       1.89
O      25.14       6.38       1.79
O      22.24      10.95       1.71
O      22.86       6.23       1.59
O      26.65       9.16       1.85
O      26.77       7.32      -0.74
O      22.58       7.92      -2.80
O      25.74       8.06      -2.65
O      21.36       7.19      -1.02
O      23.90      12.00      -0.74
O      24.04      10.72      -2.64
