20

Zn       3.41       5.43      11.91
Zn       6.13       5.33      11.93
H      -1.07       5.36      12.94
H       0.86       6.36      12.12
C       4.72       7.95      12.11
C       4.80       4.96      14.51
C       4.48       2.82      11.42
C       0.64       4.66      11.17
C      -0.83       4.75      11.09
C       5.10       5.68       9.31
N       1.37       5.55      11.75
N      -1.56       5.14      12.06
O       3.58       7.41      12.31
O       3.99       5.77       9.93
O       6.24       5.51       9.84
O       5.83       7.32      12.02
O       3.69       4.91      13.88
O       5.94       5.09      13.97
O       3.35       3.41      11.41
O       5.61       3.37      11.60
