14

C      24.10      10.95      15.81
Zn      21.52      10.83      17.23
Zn      21.54      10.83      14.59
O      19.54      10.74      14.92
O      23.53      10.74      16.92
O      21.39      12.83      14.76
O      21.67      12.82      17.03
O      23.57      11.03      14.66
C      21.53      13.39      15.90
C      21.53       8.27      15.90
O      21.36       8.85      17.03
C      18.96      10.95      16.03
O      19.49      11.03      17.18
O      21.70       8.84      14.78
