20

Zn       6.26       5.42       5.62
Zn       3.41       5.42       5.62
C       4.88       2.83       5.69
C      10.38       6.19       4.75
C      10.38       4.64       6.50
C       8.97       6.21       4.78
C       8.97       4.63       6.46
C       4.89       8.00       5.55
C       4.83       5.50       8.25
C       4.83       5.33       2.99
N       8.31       5.42       5.62
N      11.08       5.42       5.62
O       5.99       3.42       5.96
O       5.99       7.41       5.27
O       3.78       3.42       5.42
O       3.78       7.41       5.81
O       5.92       5.76       7.65
O       5.92       5.07       3.59
O       3.73       5.19       7.68
O       3.72       5.64       3.56
