24

Zn       0.28       5.00       0.50
Zn      -2.98       7.44      -0.50
C      -0.01       7.88       0.87
C      -2.69       4.56      -0.87
C       2.13       6.12      -1.66
C      -4.84       6.32       1.66
C       1.61       2.82       1.00
C      -4.32       9.62      -1.00
C       1.05       4.19      -2.35
C      -3.76       8.25       2.35
C      -1.73       3.75       2.43
C      -0.98       8.69      -2.43
C      -0.94       5.78       3.22
C      -1.77       6.66      -3.22
N      -0.91       4.81       2.29
N      -1.80       7.63      -2.29
N       1.24       5.15      -1.42
N      -3.95       7.29       1.42
O       0.84       6.93       0.93
O      -3.55       5.51      -0.93
O      -1.25       7.72       0.65
O      -1.46       4.72      -0.65
O       2.04       3.99       1.31
O      -4.74       8.45      -1.31
