19

Co       1.56       4.72       8.16
C       1.31       1.75       7.14
C       1.81       7.68       9.18
C      -0.34       2.23       8.68
C       3.46       7.20       7.65
C       1.46       3.97      11.09
C       1.67       5.46       5.24
C      -0.30       5.17      10.53
C       3.42       4.26       5.79
N       3.21       3.72       8.69
N      -0.09       5.71       7.63
N       0.89       4.65      10.03
C       4.25       3.29       7.88
N       2.24       4.78       6.30
C      -1.13       6.14       8.44
N       0.67       2.66       7.89
N       2.46       6.77       8.43
C       3.47       3.16       9.93
C      -0.35       6.27       6.40
