18

Al       9.82       5.05       7.46
Al      13.14       4.98       7.45
H      11.43       3.47       6.61
H       8.07       6.57       8.27
O       9.33       3.23       7.84
O       6.96       5.21       5.61
C       8.25       2.63       7.59
C       8.12       5.14       5.02
C      11.45       7.42       7.34
C      11.54       5.01       9.89
O      12.54       6.81       7.57
O      10.47       5.29       9.26
O      10.33       6.87       7.09
O      12.66       4.70       9.29
O       7.12       3.17       7.37
O       9.21       4.94       5.64
O      11.47       4.40       6.88
O       8.14       5.63       8.03
