18

Al       6.47      15.49      11.76
Al       9.84      15.49      11.74
H       8.16      13.74      11.55
H       4.79      17.23      11.95
O       9.29      16.73      10.37
C       8.16      17.09      13.55
O       5.93      14.25      13.13
C       4.80      13.89       9.95
O       7.02      16.73      13.12
C       8.15      17.08       9.94
O       3.65      14.25      10.38
C       4.78      13.89      13.57
O       7.01      16.73      10.39
O       3.64      14.24      13.11
O       5.93      14.24      10.40
O       9.30      16.73      13.10
O       8.16      14.69      11.75
O       4.79      16.29      11.75
