20

Zn       5.31       5.66       8.46
Zn       5.29       8.56       8.63
C       5.47       7.34       5.97
C       2.71       7.17       8.49
C       5.00       6.89      11.07
C       7.87       7.26       8.58
C       4.24      11.26       8.08
C       6.05      11.39       9.55
C       6.21       2.78       9.15
C       4.71       2.84       7.40
N       5.21      10.66       8.82
N       5.46       3.52       8.29
O       5.70       6.23       6.54
O       5.10       8.42       6.55
O       3.25       8.29       8.80
O       3.30       6.13       8.08
O       5.49       7.96      10.59
O       4.74       5.84      10.42
O       7.29       6.14       8.82
O       7.30       8.37       8.32
