15

C      26.10      15.31      27.72
C      25.36      14.57      29.69
C      31.44      11.25      26.36
Cu      28.42      13.55      27.40
C      30.74      13.24      25.66
Cu      27.10      12.23      29.98
C      27.40       9.91      31.73
Cu      29.69      10.93      28.68
C      29.37       9.18      31.00
N      26.39      13.79      29.30
N      26.87      14.27      28.09
N      29.97      12.86      26.69
N      30.42      11.63      27.14
N      29.00      10.21      30.23
N      27.78      10.68      30.70
