9

C       6.82       7.66      30.05
Zn       9.14       9.26      29.02
N       7.85       7.63      29.19
C       8.78      11.04      26.66
Cl       8.98      10.36      30.93
C       6.75      10.48      27.63
Cl      10.96       8.54      27.96
N       8.09      10.36      27.59
C       7.94       6.63      28.30
