54

Zr      10.79       2.52       6.12
Zr      14.34       6.00       5.81
Zr      12.46       4.15       3.46
Zr      12.68       4.37       8.47
Zr      10.81       6.05       5.97
Zr      14.33       2.46       5.96
H       9.71       4.22       4.11
H      12.67       7.12       7.82
H      15.27       4.14       3.88
H      12.63       1.56       8.05
C       8.09       4.34       6.19
C      12.59       8.73       5.73
C      17.05       4.18       5.90
C      12.55      -0.22       6.02
C      10.17       1.85       3.03
C      10.35       2.22       9.28
C      15.04       6.60       8.90
C      14.66       6.43       2.65
C      10.31       6.45       2.75
C      14.57       1.81       2.76
C      14.97       2.20       9.17
C      10.43       6.56       9.18
O       8.66       3.19       6.24
O      13.72       8.14       5.69
O      16.48       5.33       5.83
O      11.41       0.37       6.10
O      11.01       2.68       2.54
O      11.25       3.05       9.66
O      14.19       5.78       9.39
O      13.80       5.56       2.27
O      10.05       6.78       3.95
O      14.93       1.57       3.96
O      15.20       1.84       7.97
O      10.10       6.83       7.98
O      13.70       2.67       2.38
O      14.13       3.09       9.55
O      11.34       5.75       9.56
O      11.11       5.52       2.37
O       9.95       1.65       4.27
O      14.99       6.70       3.85
O      15.24       6.82       7.66
O      10.07       1.89       8.08
O      13.70       0.34       6.02
O       8.68       5.47       6.13
O      11.44       8.17       5.80
O      16.46       3.04       5.90
O      12.62       2.33       7.46
O      14.50       4.16       4.47
O      12.64       6.31       7.29
O      10.52       4.23       4.64
O      12.53       5.68       4.86
O      11.15       4.33       7.07
O      14.08       4.28       6.94
O      12.52       2.75       4.99
