36

Zn       1.37       2.85       8.73
N       3.97       5.98      12.05
Zn       1.76       5.91       6.97
N       1.98       3.54      11.60
N       1.58       7.66       7.96
N       0.08       4.32       8.91
Zn       3.80       3.94      10.98
N       4.27       7.12      11.33
Zn       4.09       6.88       9.33
C       2.08       2.03       5.86
C      -0.96       4.46       9.76
C       1.46       3.84      12.81
C       6.82       5.86       9.20
C       0.74       8.69       8.07
C       3.75       7.36       5.38
C       4.83       1.26      10.06
C       4.78       8.63       6.85
C       0.21       2.29      11.86
C       3.12       0.36       9.01
C       1.59       8.29      10.07
C       6.89       4.41      10.88
C      -1.08       6.04       8.22
C       2.52       3.90       4.78
C       4.74       6.02      13.15
C       5.21       7.82      11.99
N       1.71       3.04       6.65
N       5.56       5.41       9.41
N       3.80       6.67       6.54
N       3.99       2.25       9.70
N       4.44       7.47       7.45
N       2.94       1.69       9.04
N       5.62       4.52      10.45
N       1.99       4.21       5.98
N       2.11       7.40       9.20
N       1.20       2.58      11.00
N       0.01       5.30       7.96
