23

Zn      19.70       9.84       7.21
Zn      16.52       9.81       7.20
Zn      18.11      12.61       7.22
Zn      18.13      10.71       9.84
C      18.11       7.79       5.77
C      20.70       9.24       9.91
C      20.66      12.26       5.78
C      15.58       9.20       9.94
C      15.56      12.23       5.78
C      18.12      13.65       9.99
O      16.96       8.23       6.10
O      19.24       8.29       6.10
O      19.72       9.78      10.52
O      20.86       9.17       8.64
O      19.69      13.02       6.10
O      20.82      11.03       6.12
O      16.58       9.72      10.54
O      15.39       9.15       8.68
O      16.52      13.00       6.12
O      15.42      11.00       6.10
O      18.12      13.86       8.73
O      18.12      12.52      10.58
O      18.10      10.75       7.87
