23

Zn      10.81      24.45      13.84
Zn      10.91      27.69      13.88
Zn       8.78      26.12      15.71
Zn       8.55      26.11      12.45
O       9.75      26.10      14.01
O       9.17      24.51      16.79
O       9.30      27.62      16.85
O       8.76      27.74      11.40
O       8.77      24.57      11.27
O       6.82      26.17      15.38
O      12.81      27.16      14.04
O      12.67      24.96      13.46
O       6.69      26.14      13.10
O      10.52      28.89      15.39
O      10.67      23.40      15.49
O      10.25      23.27      12.40
O      10.66      28.70      12.22
C       9.94      28.68      16.51
C       9.94      23.54      16.52
C       9.44      23.50      11.44
C       9.68      28.63      11.40
C       6.21      26.20      14.27
C      13.31      26.03      13.72
