23

Zn      16.19      16.21      22.43
Zn      17.72      15.39      25.17
Zn      16.03      18.08      25.05
Zn      14.53      15.23      24.97
C      18.82      14.83      22.50
C      18.53      17.84      26.60
C      16.08      19.15      22.27
C      13.44      17.58      26.39
C      13.71      14.63      22.19
C      16.13      13.28      26.49
O      16.12      16.23      24.40
O      17.90      15.43      21.84
O      18.77      16.64      26.24
O      16.06      19.34      23.54
O      18.88      14.66      23.76
O      16.10      18.03      21.67
O      17.52      18.53      26.24
O      14.35      18.40      26.02
O      13.46      14.63      23.44
O      13.39      16.33      26.12
O      14.74      15.15      21.65
O      17.25      13.89      26.36
O      15.00      13.62      26.00
