18

Al       5.02       4.55       4.60
C       3.40       2.89       6.44
O       2.24       3.11       3.24
Al       1.70       4.36       4.60
C       6.72       6.01       6.44
C       6.71       6.02       2.75
O       5.56       5.79       3.24
C       3.39       2.88       2.75
O       5.58       5.80       5.94
O       2.25       3.10       5.94
O       4.50       3.36       6.01
O       7.83       5.55       6.01
O       7.82       5.59       3.21
O       4.50       3.32       3.21
O       3.33       5.26       4.59
O       6.65       3.64       4.59
H       3.25       6.22       4.43
H       6.57       2.69       4.43
