15

C       3.07      21.02       5.08
N       3.79      21.96       5.72
N       7.20      24.92       5.71
C       8.25      25.34       4.97
N       5.05      21.98       5.16
N       6.66      26.01       6.35
C       7.37      27.10       5.99
Cu       3.42      23.15       7.07
Cu       5.22      25.73       7.47
Cu       6.16      23.40       5.55
C       5.09      21.05       4.18
C       2.05      24.34       9.37
C       3.30      26.14       9.66
N       3.80      25.44       8.61
N       3.02      24.32       8.44
