23

Zn      10.40       3.99      10.23
O       9.21       2.47       9.89
Zn      11.87       2.34       7.87
O       9.39       5.65       9.94
Zn      11.97       5.53       7.91
O      13.52       1.28       7.97
Zn      13.59       3.83      10.14
C      11.93       3.97       5.43
C      14.50       6.43       9.09
C       9.37       1.45       9.14
C      12.06       3.99      12.65
C       9.43       6.47       8.97
C      14.43       1.32       8.86
O      11.60       2.87       5.97
O      13.18       3.92      12.05
O      12.24       5.07       6.00
O      10.89       3.99      12.13
O      11.96       3.92       9.03
O      10.27       6.51       8.02
O      14.56       2.16       9.80
O      13.44       6.72       8.44
O      14.77       5.35       9.71
O      10.34       1.21       8.35
