15

C       4.08      18.12       2.58
Cu       5.67      20.42       3.44
C       2.56      18.09       4.20
Cu       5.77      22.63       5.70
Cu       3.45      20.44       5.71
C       7.98      21.95       2.50
C       2.59      22.08       7.98
C       8.07      23.48       4.11
C       4.25      23.55       8.02
N       3.41      19.11       4.44
N       4.36      19.13       3.43
N       6.99      21.69       3.39
N       7.05      22.64       4.38
N       4.47      22.69       7.01
N       3.45      21.77       6.99
