16

Zn       3.84       7.02       7.02
Si       0.01       7.02       7.02
C       2.66       7.02       4.16
C       4.99       7.02       4.15
N       3.86       9.21       7.02
N       3.82       4.84       7.02
N       3.86       7.02       9.21
N       3.82       7.02       4.84
F       1.77       7.02       7.02
F       5.91       7.02       7.02
C       2.70       9.89       7.02
C       5.02       9.89       7.02
C       2.66       4.15       7.02
C       4.99       4.15       7.02
C       2.70       7.02       9.89
C       5.02       7.02       9.89
