10

Al       4.24      20.83       4.01
O       5.30      21.04       5.59
O       5.30      22.10       3.04
O       5.31      19.36       3.40
O       3.18      22.10       4.96
O       3.18      19.37       4.63
O       3.18      21.02       2.43
C       6.26      21.86       2.22
C       6.25      18.77       4.01
C       6.26      21.86       5.80
