24

Zn       2.56       0.62       6.23
Zn       6.56      -0.62       6.23
C       3.89       2.56       7.91
C       7.89      -2.56       7.91
C       3.36       0.75       9.25
C       7.36      -0.75       9.24
C       3.87       3.17       6.52
C       7.86      -3.17       6.52
C       3.69      -1.72       6.73
C      -0.31       1.72       6.73
C       1.85      -1.09       3.75
C       5.85       1.09       3.75
C       1.79       1.20       3.42
C       5.78      -1.20       3.42
N       3.32       1.36       8.06
N       7.31      -1.36       8.06
N       2.13       0.15       4.20
N       6.12      -0.14       4.20
O       3.33       2.43       5.61
O       7.33      -2.43       5.61
O       2.45      -1.47       6.83
O      -1.54       1.47       6.83
O       4.52      -0.79       6.44
O       0.53       0.79       6.44
