36

Zn      14.80      10.31       0.16
Zn      14.64       5.67      -0.19
Zn      12.45       8.03       0.27
Zn      16.98       7.90      -0.27
C      11.00       5.63       1.67
C      18.46       5.59      -1.74
C      18.89      10.13       0.65
C      10.76      10.55      -0.60
C      12.46       4.02       1.29
C      16.86       4.07      -1.72
C      17.47      11.71       1.18
C      12.36      12.04      -0.75
C      17.12       7.19       2.63
C      12.16       7.59      -2.72
C      12.80       8.60       3.21
C      16.53       8.67      -3.12
N      14.35       9.47       1.92
N      15.16       9.63      -1.70
N      15.42       6.32       1.53
N      13.87       6.57      -1.79
N      11.92       6.10       0.81
N      17.46       6.05      -0.97
N      17.68       9.76       0.21
N      11.87      10.00      -0.07
N      12.83       5.10       0.57
N      16.46       5.11      -0.96
N      16.79      10.75       0.53
N      12.88      10.95      -0.16
N      16.37       7.29       1.51
N      12.92       7.52      -1.60
N      13.36       8.54       1.98
N      16.02       8.59      -1.88
C      14.41      10.11       3.10
C      15.13      10.36      -2.82
C      15.58       5.59       2.66
C      13.72       6.05      -3.02
