23

Zn      23.32      18.76      16.99
Zn      21.76      19.67      14.31
Zn      20.11      18.68      16.84
Zn      21.59      21.46      16.95
O      21.71      19.64      16.26
O      24.49      18.23      15.51
C      24.41      18.35      14.24
C      21.67      16.62      18.25
C      24.08      21.18      18.55
O      22.80      17.15      17.99
O      20.27      18.70      13.49
O      23.42      18.89      13.60
O      19.05      18.04      15.30
O      18.91      19.77      17.93
O      24.30      19.97      18.19
O      21.71      21.51      13.59
O      23.09      21.90      18.14
O      19.96      21.81      17.99
O      21.61      22.78      15.50
C      19.25      18.13      14.03
C      18.99      21.01      18.28
O      20.51      17.07      17.88
C      21.65      22.64      14.23
