20

Zn       8.29       6.39       7.25
Zn       5.39       6.75       7.09
C       6.99       9.12       7.59
C      11.27       5.79       7.70
C       7.03       6.89       4.60
C       6.66       6.26       9.74
C       6.69       4.02       6.75
C       2.91       5.42       7.83
C      10.77       7.73       6.53
C       2.41       7.35       6.64
N      10.38       6.62       7.18
N       3.30       6.53       7.17
O       8.05       8.43       7.57
O       5.63       4.71       6.77
O       5.80       8.71       7.47
O       7.88       4.44       6.87
O       8.14       6.77       5.20
O       5.54       6.37       9.14
O       5.87       7.02       5.12
O       7.81       6.13       9.23
