20

Zn       4.88       7.45       8.49
Zn       7.68       7.42       8.58
C       6.33       4.83       8.63
C       6.32      10.05       8.62
C      10.42       6.40       8.03
C       2.16       7.99       9.54
C      10.41       8.47       9.09
C       2.14       6.92       7.47
C       6.26       7.51       5.93
C       6.22       7.57      11.13
N       9.73       7.43       8.56
N       2.83       7.46       8.50
O       5.22       5.43       8.80
O       7.43       9.47       8.87
O       7.44       5.38       8.35
O       5.24       9.49       8.24
O       5.13       7.24       6.46
O       7.33       7.24      10.59
O       7.35       7.67       6.57
O       5.13       7.78      10.50
