20

Zn       4.49       5.60      11.75
Zn       7.25       5.50      11.64
C       5.87       2.99      11.81
C       5.81       5.71       9.10
C       5.92       8.12      11.76
C       5.94       5.63      14.36
C       0.36       4.93      10.80
C       0.32       5.90      12.84
C       1.72       5.92      12.85
C       1.75       4.95      10.81
N      -0.38       5.42      11.79
N       2.46       5.46      11.81
O       4.82       3.62      12.16
O       6.94       3.52      11.36
O       4.74       5.42       9.74
O       6.98       5.81       9.60
O       4.78       7.62      11.55
O       7.00       7.48      11.97
O       4.84       6.02      13.80
O       6.96       5.21      13.76
