23

Zn      19.80       9.58       0.83
Zn      20.58      11.06      -1.91
Zn      18.61      12.44       0.29
O      19.57       8.24      -0.59
O      20.19      11.32      -0.00
Zn      21.77      12.17       0.79
O      18.21       9.69       1.96
O      19.01      11.74      -2.92
O      20.82       9.15      -2.26
O      17.10      11.38       0.92
O      18.16      13.27      -1.46
O      21.37       9.10       1.94
O      22.18      12.07      -2.44
O      19.07      13.85       1.58
O      22.23      11.16       2.43
O      21.32      14.02       1.27
O      23.29      12.12      -0.45
C      20.19       8.19      -1.70
C      18.28      12.73      -2.60
C      17.17      10.38       1.72
C      20.19      14.44       1.70
C      22.11       9.90       2.60
C      23.22      12.25      -1.72
