23

O      18.45      10.41      11.26
O      22.81      11.71       7.13
Zn      19.95      11.47      10.58
Zn      19.97      13.30       8.02
Zn      18.36      10.50       7.98
Zn      21.56      10.48       8.02
O      21.61      13.65       6.98
O      18.38      13.64       6.93
O      17.40      11.60       6.65
O      18.83       8.83       7.04
O      21.08       9.06       6.76
O      19.95      11.43       8.62
C      19.84      14.42      10.73
C      22.46       9.95      10.75
C      17.37      10.01      10.70
C      22.63      12.91       6.73
C      17.52      12.84       6.40
C      19.96       8.47       6.55
O      19.99      14.62       9.48
O      19.71      13.27      11.30
O      22.51       9.61       9.52
O      21.66      10.81      11.26
O      17.13      10.01       9.44
