23

O      18.02      21.70      17.58
C      19.07      18.40      15.04
Zn      17.29      17.68      19.77
O      19.54      21.60      19.27
Zn      17.68      19.77      17.29
Zn      19.77      17.29      17.68
C      18.74      22.23      18.50
O      21.70      17.58      18.02
Zn      19.71      19.71      19.71
O      21.60      19.27      19.54
O      18.58      18.58      18.58
C      18.40      15.04      19.07
C      22.23      18.50      18.74
O      19.70      17.53      15.72
O      18.22      19.24      15.48
C      15.04      19.07      18.40
O      17.53      15.72      19.70
O      19.24      15.48      18.22
O      15.72      19.70      17.53
O      15.48      18.22      19.24
C      18.50      18.74      22.23
O      17.58      18.02      21.70
O      19.27      19.54      21.60
