23

Zn      16.28       9.31       1.16
O      15.12       7.78       0.73
Zn      17.91       7.65      -0.96
Zn      19.52       9.22       1.33
Zn      17.99      10.84      -1.03
O      18.93       9.21       3.23
O      16.66       9.22       3.08
O      16.34      11.90      -0.88
O      19.50      11.99      -0.58
O      20.64      10.80       0.99
O      17.89       8.07      -2.88
O      19.48       6.56      -0.58
O      20.65       7.63       1.04
C      15.37      11.82      -0.06
C      17.99       9.19      -3.48
C      15.31       6.75       0.01
C      20.48       6.68       0.21
C      17.76       9.20       3.73
C      20.49      11.80       0.21
O      17.95       9.27       0.14
O      15.20      10.90       0.82
O      18.10      10.34      -2.94
O      16.34       6.51      -0.70
