15

Cu       3.27       5.37       7.49
Cu       4.73       4.71       4.81
N       3.54       6.12       4.85
N       2.98       6.49       6.05
C       2.36       7.68       5.87
N       3.54       4.24       8.92
N       4.68       3.48       8.98
C       2.78       3.94       9.99
C       3.26       7.07       3.94
N       6.06       3.44       4.72
C       6.78       2.96       3.69
N       6.63       2.98       5.89
Cu       5.72       3.31       7.46
C       4.63       2.73      10.10
C       7.69       2.22       5.57
