13

C       4.04       8.94       6.17
In       2.11      10.81       6.24
O       0.47      12.37       6.71
C       4.04      12.67       6.30
C       0.18       9.81       4.65
C       0.18      11.79       7.83
O       3.32       9.08       7.22
O       3.32      12.54       5.26
O       0.90      10.79       4.25
O       0.90      10.82       8.23
O       3.75       9.61       5.12
O       3.75      12.00       7.36
O       0.47       9.24       5.77
