20

Zn       1.42      11.95       9.63
C       2.93       9.43       8.76
Zn       1.32      10.98       6.92
C      -0.19      13.48       7.77
C       1.46       9.46       4.32
C      -0.69      10.00       8.87
C       3.46      12.90       7.70
N       1.53      12.41      11.62
N       1.19      10.65       4.90
O       0.12      13.40       9.00
O       2.43       9.39       7.58
O      -0.15      10.62       9.84
O       3.04      12.11       6.80
O       2.64      10.26       9.68
O      -0.40      10.13       7.63
O       3.04      12.98       8.91
O       0.29      12.79       6.82
C       1.25      11.44      12.51
C       1.90      13.62      12.08
C       0.88      11.70       4.12
