14

C      11.80       8.02      10.83
C       6.81       8.03      10.68
Zn       9.29       7.19      10.91
C       9.18       9.02      13.44
Zn       9.33       9.95      10.94
C       9.33       9.23       8.43
O      11.20       6.89      10.87
O       7.36       9.17      10.82
O      11.26       9.17      10.94
O       7.39       6.89      10.73
O       9.19       7.89      12.88
O       9.32      10.37       9.03
O       9.25      10.17      12.86
O       9.36       8.09       8.98
