23

Zn      12.91       7.45      36.08
C      14.87       5.26      40.19
C      13.84      10.24      40.20
C      10.04       6.86      40.20
Zn      12.36       5.70      38.73
Zn      14.71       7.85      38.73
Zn      11.67       8.81      38.73
O      12.92       7.45      38.06
C      15.85       7.43      36.04
O      14.75       7.25      35.41
O      11.82       5.96      35.41
O      12.17       9.14      35.41
C      11.47      10.00      36.04
C      11.43       4.92      36.04
O      15.96       7.91      37.22
O      10.99       9.86      37.22
O      11.79       4.58      37.22
O      13.69       4.85      39.89
O      14.78       9.43      39.89
O      10.27       8.08      39.89
O      15.40       6.36      39.82
O      12.62      10.15      39.82
O      10.72       5.85      39.82
