20

Zn       6.51       5.96       5.49
Zn       3.74       6.04       5.52
C       5.13       5.67       2.91
C       5.05       3.38       5.75
C      10.71       4.93       5.27
C      10.69       7.16       5.64
C       9.29       7.15       5.64
C       9.32       4.92       5.32
C       5.13       6.29       8.10
C       5.14       8.62       5.29
N      11.43       6.03       5.46
N       8.57       6.00       5.49
O       6.27       5.82       3.45
O       4.01       5.63       3.53
O       6.20       3.90       5.55
O       3.97       4.02       5.92
O       6.24       6.05       7.52
O       4.00       6.42       7.53
O       6.26       8.01       5.39
O       4.00       8.07       5.18
