19

Co       1.55       4.72       8.17
C      -0.30       6.48       6.28
C       1.86       4.18      11.25
C       3.40       2.95      10.05
C       1.24       5.26       5.09
C       3.46       7.02       7.69
C      -1.14       4.26       9.56
C      -0.28       6.55       9.78
C       1.62       1.82       7.33
C      -0.36       2.42       8.65
C       4.23       5.18       6.78
C       3.38       2.89       6.56
C       1.47       7.61       9.01
N       0.63       5.52       6.26
N       2.46       3.92      10.08
N       3.20       5.67       7.56
N       0.89       6.36       9.07
N      -0.10       3.77       8.78
N       2.20       3.08       7.27
