20

Zn       5.71       3.11      19.09
O       2.95       4.33      20.24
Zn       2.93       2.58      19.11
O       5.19       4.37      20.62
O       3.49       0.94      17.96
O       5.58       1.72      17.57
C       4.00       4.79      20.80
C       4.60       0.94      17.33
O       5.15       4.55      17.75
O       3.07       3.72      17.39
C       4.04       4.50      17.13
C       0.14       2.98      19.96
C       8.46       4.25      19.44
C       8.40       2.00      18.88
C       4.59       1.17      21.10
C       0.30       1.47      18.20
N       0.90       2.29      19.09
N       7.75       3.16      19.12
O       5.63       1.50      20.43
O       3.40       1.55      20.84
