23

Zn      26.14       8.47      16.25
Zn      27.77       7.47      13.72
Zn      27.79       5.73      16.42
Zn      29.37       8.54      16.28
O      27.78       7.55      15.68
O      25.04       9.06      14.75
O      27.76       5.61      13.12
O      26.20       5.41      17.54
C      25.21       8.91      13.49
O      25.04       7.37      17.44
C      25.22       6.17      17.84
O      26.19       8.32      12.93
C      27.75      10.61      17.58
O      27.78       4.34      15.02
O      26.63      10.09      17.26
O      29.34       8.32      12.92
O      29.37       5.44      17.54
O      28.91      10.16      17.29
O      30.49       7.42      17.44
O      30.48       9.09      14.75
C      30.32       8.92      13.49
C      27.77       4.50      13.75
C      30.34       6.22      17.84
