20

Zn      13.06       7.56      11.05
Zn      10.45       7.03      11.75
C      12.43       4.76      11.34
C      11.17       9.82      11.81
C      12.44       7.17      13.95
C      11.06       7.42       8.87
C       8.30       5.35      13.01
C      15.20       9.24       9.83
C       7.53       7.07      11.64
C      15.98       7.50      11.17
N       8.54       6.41      12.19
N      14.97       8.17      10.63
O      13.42       5.52      11.05
O      10.16       9.06      11.99
O      11.23       5.15      11.49
O      12.30       9.45      11.34
O      13.36       7.45      13.11
O      10.13       7.24       9.72
O      11.21       6.96      13.67
O      12.30       7.54       9.15
