10

Al       0.00       0.00      25.14
O      -1.05       1.59      24.96
O      -1.05      -0.95      23.86
O      -1.05      -0.63      26.61
O       1.06       0.95      23.86
O       1.06       0.64      26.61
O       1.06      -1.59      24.97
C      -1.99       1.78      24.12
C      -1.99      -1.78      24.12
C      -1.99       0.00      27.20
