18

Al       3.88       8.14       8.71
Al       0.56       8.14       8.71
H       2.23       9.50       9.86
H       5.53       6.79       7.57
O       4.36       7.76      10.54
O       6.61       8.10      10.53
O       4.47       9.97       8.91
O       2.22       8.69       9.33
O       5.54       7.60       8.09
O       6.71      10.00       8.56
C       5.50       7.83      11.11
C       5.58      10.57       8.71
C       2.26       8.46       6.31
C       2.18       5.72       8.71
O       1.16       8.19       6.89
O       3.29       6.32       8.52
O       3.40       8.53       6.88
O       1.05       6.29       8.86
