9

I      -2.72       1.66      30.53
I      -2.89       6.25      30.17
Zn      -1.73       3.98      30.15
C       0.42       5.38      31.75
N      -0.80       3.88      28.29
C      -1.42       3.34      27.23
N      -0.07       4.17      31.43
C       0.47       4.33      28.15
C       0.52       3.07      31.93
