23

Zn       2.69       5.24       7.41
Zn       4.83       2.97       7.74
Zn       5.19       5.18       5.48
Zn       2.89       2.95       5.10
C       7.42       4.02       6.91
C       4.00       0.51       6.33
C       0.34       4.02       6.11
C       4.23       4.25       2.85
C       3.42       4.14       9.98
C       4.03       7.63       6.47
O       3.88       4.05       6.40
O       4.79       1.11       7.13
O       5.11       7.05       6.13
O       7.00       4.48       5.80
O       3.14       1.03       5.54
O       0.96       3.37       5.20
O       4.79       5.14       3.57
O       3.94       3.08       9.48
O       3.09       5.19       9.33
O       3.52       3.27       3.25
O       6.72       3.55       7.87
O       2.92       7.09       6.77
O       0.85       4.69       7.07
