18

Al       4.73       0.00       0.03
Al       1.39      -0.01      -0.04
C       3.05      -1.99       1.39
C       3.08      -1.17      -2.13
H       3.04       1.67       0.55
H       6.38      -1.69      -0.51
C       6.39       1.99      -1.40
C       6.43       1.16       2.12
O       1.93      -0.91      -1.64
O       4.20      -1.52       1.09
O       5.27       0.91       1.64
O       4.20      -0.89      -1.59
O       5.27       1.52      -1.01
O       1.93      -1.53       1.00
O       3.06       0.78       0.18
O       7.54       1.52      -1.09
O       7.54       0.88       1.58
O       6.40      -0.78      -0.18
