66

Dy       9.06      19.67      10.80
C       8.52      17.21      13.16
O       8.40      19.30       8.59
C      10.21      18.58      13.93
O       9.39      21.71       9.77
O       9.57      20.50       7.06
Dy      11.49      21.38       8.08
O      12.84      20.48       6.28
O      10.23      23.37       8.56
O      13.80      20.52       8.29
H       6.42      18.22       9.35
H       4.79      16.31       9.52
H       4.99      14.72      11.46
H       6.13      14.12      13.61
H       7.76      14.67      15.37
C      15.21      20.08       6.40
H       9.57      16.17      16.24
H      11.05      18.16      15.88
H      10.85      19.44      13.72
C      13.88      20.36       7.03
C       8.53      19.90       7.48
C       9.46      22.96       9.48
C      14.09      23.54       8.69
C      15.00      24.61       8.59
C      14.88      25.48       7.53
C      13.88      25.26       6.55
H      14.14      22.83       9.52
C      13.02      24.14       6.73
H      15.76      24.74       9.35
H      15.56      26.33       7.42
C      13.76      26.07       5.38
H      14.43      26.92       5.27
C      10.35      22.47       4.94
C      12.04      23.84       5.71
C      12.85      25.77       4.41
C      11.98      24.65       4.54
H      12.80      26.38       3.50
C      11.06      24.28       3.54
H      10.99      24.88       2.63
C      10.24      23.19       3.74
H       9.50      22.89       2.99
H       9.71      21.61       5.15
C       5.35      20.97      12.47
C       6.68      20.69      11.84
C      12.03      21.15      11.39
N       7.43      17.74      11.08
N       9.34      18.28      12.97
C      11.10      18.09       9.39
N      13.13      23.31       7.80
N      11.22      22.77       5.90
O       6.76      20.53      10.58
O       7.72      20.57      12.59
O      10.99      20.55      11.81
O      12.15      21.75      10.28
O      10.33      17.68      10.31
O      11.17      19.34       9.10
C       6.46      17.51      10.18
C       5.56      16.44      10.28
C       5.67      15.57      11.35
C       6.67      15.79      12.32
C       7.53      16.91      12.15
C       6.80      14.97      13.49
C       7.70      15.27      14.46
C       8.58      16.40      14.33
C       9.50      16.77      15.33
C      10.32      17.86      15.14
