18

Zn       5.78       7.98       8.05
Zn       8.55       8.00       8.08
C       7.17       5.38       8.07
C       7.19       8.00       5.46
N       3.73       7.97       8.05
N      10.61       8.01       8.07
C       7.14      10.60       8.06
C       2.57       7.97       8.05
C      11.77       8.01       8.05
O       6.02       5.93       8.05
O       8.30       5.96       8.08
O       6.04       7.98       6.02
O       8.32       8.02       6.04
O       6.00      10.03       8.05
O       8.28      10.03       8.10
O       6.04       7.97      10.09
O       8.32       7.98      10.12
C       7.17       7.97      10.67
