23

Zn      15.40       3.51       8.14
Zn      13.85       0.73       8.24
O      14.88       5.08       9.20
Zn      13.79       2.59       5.57
Zn      12.15       3.44       8.14
O      12.28       0.34       9.35
O      12.59       5.11       9.09
O      10.94       3.88       6.65
O      13.79       0.76       4.89
O      15.32       3.58       4.83
C      11.27       1.06       9.65
C      16.35       4.05       5.41
C      16.30       1.21       9.80
C      11.21       4.00       5.41
C      13.85      -0.37       5.49
C      13.73       5.57       9.47
O      13.79       2.56       7.53
O      11.06       2.27       9.28
O      16.47       2.40       9.35
O      16.59       4.02       6.67
O      15.35       0.42       9.47
O      12.28       3.62       4.83
O      13.91      -0.55       6.75
