20

Zn       3.01       4.89       7.20
Zn       5.93       5.00       6.84
H       0.51       4.14       7.71
C       4.57       2.43       6.35
C       4.52       7.55       7.45
C       4.76       4.27       9.48
C       0.28       6.07       7.51
C      -1.19       5.89       7.65
C       4.10       5.55       4.49
N       1.03       4.99       7.50
N      -1.91       5.35       6.71
N      -1.33       5.15       5.48
O       3.40       2.89       6.53
O       5.65       3.08       6.28
O       3.06       5.50       5.24
O       5.32       5.49       4.87
O       3.44       6.92       7.76
O       5.63       6.93       7.21
O       3.56       4.29       9.06
O       5.82       4.34       8.78
