23

N       4.09      13.58      14.49
Zn       3.24      14.92      15.80
N       4.96      15.32      16.89
O       2.27      13.85      17.17
O       0.88      13.22      15.51
O       2.31      16.40      15.07
C       1.19      13.28      16.73
C       0.29      12.70      17.77
H       1.63      13.10      19.40
C       0.65      12.70      19.12
H       0.06      12.20      21.13
H      -2.16      11.31      20.45
C      -0.22      12.19      20.08
C      -1.47      11.69      19.70
H      -2.82      11.30      18.05
C      -1.84      11.69      18.35
H      -1.22      12.21      16.33
C      -0.96      12.19      17.39
C       4.67      13.99      13.35
C       3.99      12.26      14.72
C       6.07      15.78      16.28
H       2.90      17.11      14.78
C       4.98      15.18      18.23
