13

N      13.98       2.07       4.95
Co      13.16       3.72       4.05
C      11.52       2.54       2.59
C      14.98       2.25       5.85
C      13.47       0.83       4.82
N      12.93       4.86       5.72
C      11.90       4.60       6.55
O      15.33       4.49       3.78
O      13.53       5.19       2.67
O      11.23       3.22       3.66
C      13.74       5.89       6.05
O      12.74       2.42       2.25
C      14.81       5.22       2.87
