23

Zn       3.05       7.04      11.91
Zn       6.25       7.07      11.99
Zn       4.64       7.99       9.34
Zn       4.67       9.85      11.92
O       3.49       5.41      12.92
O       4.56      11.13      10.45
O       7.33       8.23      13.14
C       7.20       9.47      13.40
C       2.08       6.52       9.17
C       4.62       5.03      13.38
C       4.64      10.93       9.19
C       7.18       6.44       9.27
C       2.12       9.43      13.36
O       3.05       7.11       8.59
O       6.26      10.25      13.02
O       1.93       6.41      10.44
O       5.75       5.60      13.20
O       4.71       9.80       8.60
O       4.66       7.99      11.31
O       7.35       6.35      10.53
O       3.09      10.19      13.06
O       6.20       7.01       8.68
O       1.93       8.22      13.01
