18

Al       6.49       5.77       8.70
Al       3.08       5.77       8.71
H       4.80       4.66      10.10
H       8.19       6.89       7.32
O       7.12       5.73      10.50
O       9.25       3.98       8.87
O       3.60       5.44       6.91
O       5.96       7.63       8.94
O       5.85       5.80       6.90
O       3.73       7.56       8.55
C       8.24       5.95      11.08
C       8.15       3.38       8.64
C       4.73       5.59       6.33
C       4.82       8.16       8.78
O       9.37       6.09      10.52
O       7.01       3.90       8.46
O       4.79       5.22       9.31
O       8.19       6.32       8.10
