11

O       3.24       8.39       9.90
Cd       4.34      10.38      10.18
C       3.99      13.44      11.55
N       3.50      12.42      10.78
O       5.50       9.86      12.04
C       6.59      10.46      11.76
C       4.04      10.41       6.91
C       2.12       8.86       9.49
C       6.10      10.64       7.42
C       2.34      12.89      10.31
N       4.89      10.59       7.97
