18

Al       5.76      11.88       8.97
Al       2.44      11.90       8.94
O       2.97      10.41       7.84
O       6.29      13.38      10.07
H       4.12      13.46       8.19
H       7.45      10.33       9.72
O       5.23      10.91      10.54
O       8.56      12.87       7.37
C       4.09      10.63      11.03
C       7.41      13.16       6.88
C       4.10       9.97       7.47
C       7.43      13.81      10.44
O       5.24      10.42       7.82
O       8.56      13.36      10.09
O       6.30      12.84       7.41
O       2.97      10.94      10.50
O       4.10      12.69       8.79
O       7.43      11.09       9.12
