10

Al       3.99      -6.98      12.09
O       5.04      -6.10      10.75
O       5.04      -6.26      13.52
O       5.04      -8.57      12.00
O       2.94      -5.42      11.77
O       2.94      -8.03      10.90
O       2.94      -7.48      13.60
C       5.99      -5.28      10.94
C       5.99      -6.83      14.13
C       5.99      -8.82      11.19
