17

Ni       7.61       3.79       4.42
C       6.26       3.28       1.80
O       7.05       5.79       3.61
N       5.91       3.71       5.57
O       8.28       2.11       5.43
C       4.69       3.94       5.05
C       9.53       5.68       5.88
H       9.78       3.06       3.51
N       6.68       2.70       2.93
C       9.46       1.59       5.35
H       9.77       4.65       3.67
H       6.60       6.43       4.26
C       6.00       3.37       6.88
O       9.33       3.90       3.16
H       6.46       5.82       2.84
C       6.38       1.40       3.14
O       8.49       4.95       5.99
