118

Gd       0.00       7.32       4.09
Gd      -6.33       3.66       4.09
Gd      -6.33       3.66      12.28
Gd       0.00       7.31      12.28
Cu       3.17       5.49       0.00
Cu      -3.17       5.49       0.00
Cu       0.00      10.97      -0.00
Cu      -3.17       5.49       8.18
Cu       3.17       5.49       8.18
Cu       0.00      10.97       8.18
C      -2.67       7.23       6.00
C      -3.31       2.49      11.16
C       1.26       9.67       6.00
C      -2.52      12.60      11.16
C       1.41       5.04       6.00
C       5.83       6.86      11.16
C      -3.66       3.74       6.00
C      -3.02       8.49      11.16
C      -1.26      12.27       6.00
C       2.52       9.35      11.17
C       4.92       5.93       6.00
C       0.50       4.11      11.17
C       3.66       3.74       2.19
C       3.02       8.49      -2.98
C       1.27      12.27       2.19
C      -2.52       9.35      -2.98
C      -4.92       5.93       2.19
C      -0.50       4.11      -2.98
C       2.68       7.23       2.19
C       3.31       2.49      -2.98
C      -1.26       9.67       2.19
C       2.52      12.60      -2.98
C      -1.41       5.04       2.19
C      -5.83       6.86      -2.98
C      -3.66       3.74      10.37
C      -3.02       8.49       5.20
C      -1.26      12.27      10.37
C       2.52       9.35       5.20
C       4.92       5.93      10.37
C       0.50       4.11       5.20
C      -2.67       7.23      10.37
C      -3.31       2.49       5.20
C       1.26       9.67      10.37
C      -2.52      12.60       5.20
C       1.41       5.04      10.37
C       5.83       6.86       5.20
C       2.67       7.23      -2.19
C       3.31       2.49       2.98
C      -1.26       9.68      -2.19
C       2.52      12.60       2.98
C      -1.41       5.04      -2.19
C      -5.83       6.86       2.98
C       3.66       3.74      -2.19
C       3.02       8.49       2.98
C       1.26      12.27      -2.19
C      -2.52       9.35       2.98
C      -4.92       5.93      -2.19
C      -0.50       4.11       2.98
O      -1.59       6.64       5.74
O      -3.53       6.91       6.88
O       0.21       9.03       5.74
O       1.42      10.58       6.88
O       1.38       6.27       5.74
O       2.12       4.45       6.88
O      -4.74       4.33       5.74
O      -2.80       4.06       6.88
O      -0.21      12.91       5.74
O      -1.42      11.37       6.88
O       4.95       4.70       5.74
O       4.22       6.52       6.88
O       4.74       4.33       2.44
O       2.80       4.06       1.31
O       0.21      12.91       2.44
O       1.42      11.37       1.31
O      -4.95       4.70       2.44
O      -4.21       6.52       1.31
O       1.59       6.64       2.44
O       3.54       6.91       1.31
O      -0.21       9.03       2.44
O      -1.42      10.58       1.31
O      -1.38       6.27       2.44
O      -2.12       4.45       1.31
O      -4.74       4.33      10.62
O      -2.80       4.06       9.49
O      -0.21      12.91      10.62
O      -1.42      11.37       9.49
O       4.95       4.70      10.62
O       4.22       6.52       9.49
O      -1.59       6.64      10.62
O      -3.53       6.91       9.49
O       0.21       9.03      10.62
O       1.42      10.58       9.49
O       1.38       6.27      10.62
O       2.12       4.45       9.49
O       1.59       6.64      -2.44
O       3.54       6.91      -1.30
O      -0.21       9.03      -2.44
O      -1.42      10.58      -1.31
O      -1.38       6.27      -2.44
O      -2.12       4.45      -1.30
O       4.74       4.33      -2.44
O       2.80       4.06      -1.31
O       0.21      12.91      -2.44
O       1.42      11.37      -1.31
O      -4.95       4.70      -2.44
O      -4.21       6.52      -1.30
O      -4.20       2.42      12.27
O      -2.13      13.40      12.27
O       6.33       6.12      12.27
O      -2.13       8.55      12.28
O       2.13       8.55      12.28
O       0.00       4.85      12.28
O      -2.13       8.55       4.09
O       2.13       8.55       4.09
O       0.00       4.85       4.09
O      -4.20       2.43       4.09
O      -2.13      13.40       4.09
O       6.33       6.12       4.09
