36

Zn       4.52       6.69       9.05
Zn       2.46       2.44       8.93
Zn       2.18       5.25      10.95
Zn       4.92       3.91       6.97
C       3.97       1.91      11.61
C       6.80       4.85      10.12
C       6.17       1.34       8.46
C       4.64       5.69      12.80
N       4.79       6.94      11.02
N       0.65       3.07       9.40
N       1.79       7.11      10.43
N       3.40       3.04       6.05
N       2.29       2.93       6.85
N       2.53       7.41       9.31
N       4.71       5.91       6.30
N       0.70       4.41       9.68
N       3.98       1.25       8.45
N       2.43       3.47      11.81
N       6.54       4.57       7.95
N       3.17       2.74      10.91
N       5.94       5.05       9.10
N       5.06       2.04       8.15
N       4.11       5.90      11.59
N       4.78       6.99       7.12
C       5.73       7.37      11.88
C       5.30       8.05       6.44
C      -0.61       2.63       9.56
C       1.31       8.25      10.95
C       3.31       2.18       5.03
C       1.49       1.99       6.27
C       2.49       8.75       9.14
C       5.22       6.27       5.10
C       4.41       0.08       8.94
C      -0.54       4.80      10.03
C       2.79       3.10      13.05
C       7.75       4.11       8.26
