13

N      12.89      23.12      14.51
C      12.59      18.80      15.97
C      15.84      20.32      16.83
N      12.77      21.93      17.59
C      12.39      23.10      18.13
C      12.63      21.01      18.60
C      12.39      22.98      13.27
C      12.39      19.25      13.86
Zn      13.44      21.61      15.69
N      15.41      21.28      15.94
C      16.52      21.84      15.43
N      12.71      19.82      15.05
C      12.70      24.45      14.83
