14

O      14.38      14.73      13.46
O      11.90      13.59      15.69
O      16.35      13.60      15.07
Cr      13.66      12.79      15.38
Cr      14.59      14.39      15.38
O      13.02      15.52      15.69
C      16.34      12.31      15.01
C      14.57      13.34      17.91
C      13.68      13.85      12.84
O      13.26      12.80      13.46
C      11.91      14.87      15.74
O      15.23      11.66      15.07
O      13.87      12.45      17.30
O      14.99      14.38      17.30
