19

Fe       2.23       5.77      12.11
C       4.29       7.38      13.86
C       2.12       7.79      14.51
C       0.17       4.17      13.86
C       2.33       3.75      14.51
C       0.17       4.17      10.35
C       2.33       3.75       9.71
C       4.29       7.38      10.35
C       2.12       7.79       9.71
C       4.88       3.98      12.11
C      -0.43       7.56      12.11
S       6.01       2.84      12.11
S      -1.56       8.71      12.11
N       2.97       7.13      13.70
N       1.48       4.42      13.70
N       1.48       4.42      10.51
N       2.97       7.13      10.51
N       4.04       4.83      12.11
N       0.42       6.72      12.11
