20

Zn       5.01       5.05       5.83
Zn       2.29       4.94       5.29
H       7.55       4.19       6.19
H       9.29       4.38       4.71
C       4.04       5.20       2.98
C       7.79       6.09       5.85
C       9.26       6.02       5.76
C       3.80       2.37       5.46
C       3.18       4.78       8.14
C       3.65       7.62       5.67
N       7.05       5.07       6.04
N       9.89       5.08       5.17
O       5.04       5.36       3.76
O       2.84       4.94       3.34
O       4.88       3.04       5.51
O       2.63       2.88       5.39
O       4.39       4.73       7.77
O       2.16       4.93       7.37
O       4.75       7.06       6.01
O       2.57       7.00       5.40
