11

Zn       5.35      15.49       4.00
O       5.32      17.26       4.81
N       3.68      14.44       4.34
N       2.52      15.04       4.69
N       6.54      14.72       1.44
N       5.74      15.62       2.05
C       4.29      18.05       4.86
C       3.45      13.12       4.26
C       7.56      13.59       4.53
O       6.74      14.51       4.93
C       5.16      16.36       1.08
