20

Zn       7.47       6.45       6.53
Zn       4.58       6.88       7.09
C       5.63       4.13       6.82
C      11.62       6.06       7.84
C       6.42       9.20       6.80
C       6.52       6.77       9.35
C       5.52       6.57       4.28
C      11.64       7.67       6.17
C      10.32       5.67       7.46
C      10.33       7.28       5.79
N       9.68       6.32       6.47
N      12.27       7.01       7.16
O       6.81       4.53       6.58
O       5.24       8.81       7.04
O       4.61       4.83       7.06
O       7.45       8.51       6.57
O       7.52       6.56       8.60
O       4.52       6.77       5.03
O       5.29       6.86       9.01
O       6.75       6.48       4.61
