20

Zn       5.79       7.93       8.04
Zn       8.74       7.92       8.00
C       7.29       5.32       8.01
C       2.90       8.62       7.10
C      11.63       7.23       8.94
C       2.91       7.24       8.97
C       7.24      10.52       8.03
C      11.63       8.61       7.07
C       7.26       7.80       5.45
C       7.27       8.04      10.59
N       3.58       7.93       8.03
N      10.95       7.92       8.01
O       6.16       5.89       8.04
O       8.38       9.95       8.00
O       8.44       5.87       7.99
O       6.10       9.98       8.05
O       6.13       7.85       6.03
O       8.41       8.00      10.01
O       8.41       7.81       5.99
O       6.12       8.03      10.05
