10

Al       4.17       6.94      12.06
C       6.19       4.88      12.01
C       6.18       7.92      13.87
C       6.16       7.95      10.27
O       5.23       8.23      11.11
O       5.23       5.49      11.42
O       5.23       7.11      13.64
O       3.11       7.15      10.49
O       3.11       8.20      13.05
O       3.11       5.46      12.66
