24

N       7.61      16.13      20.41
N       9.99      19.07      20.41
Zn       9.98      19.05      18.25
Zn       7.62      16.15      18.25
O      10.94      17.26      18.27
O       6.66      17.94      18.27
O       9.53      15.50      18.22
O       8.08      19.70      18.22
O       5.99      15.01      18.13
O      11.61      20.19      18.13
C       8.98      19.47      15.28
C       8.62      15.73      15.28
C       6.55      16.67      21.04
C      11.05      18.53      21.04
C      11.06      18.47      15.43
C       6.54      16.73      15.43
C       8.58      15.57      21.15
C       9.02      19.63      21.15
C       6.27      13.79      17.83
C      11.33      21.41      17.83
N       9.96      18.96      16.04
C       6.91      19.17      18.09
C      10.70      16.03      18.09
N       7.64      16.25      16.04
