20

Zn       4.51       7.55       9.63
Zn       4.57      10.49       9.76
O       3.78       7.93      11.48
O       4.37      10.19       7.77
O       5.30       8.14       7.86
O       4.61      10.02      11.72
O       6.47       7.89      10.36
O       2.45       9.99       9.87
O       2.55       7.97       8.89
O       6.60      10.06       9.69
C       4.16       8.92      12.19
C       7.10       8.93       9.96
C       4.88       9.16       7.22
C       1.91       8.92       9.44
C       3.43       4.85       8.93
C       5.07      13.27       8.94
C       5.46       4.76       9.99
C       3.09      13.06      10.13
N       4.46       5.52       9.50
N       4.16      12.49       9.57
