33

N       4.68       2.19       7.82
Ni       8.11       4.35       7.54
O       7.34       4.58       5.80
O       7.34       6.00       8.23
O       9.74       5.32       7.16
O       8.87       2.73       6.86
O       8.87       4.13       9.30
O       6.47       3.54       8.18
H      10.43       3.93       5.81
H      13.45       5.26       5.06
H      12.25       5.85       3.86
H      12.13       4.18       4.48
H      12.73       7.13       6.76
H      10.96       7.28       7.01
H      11.68       7.73       5.43
H       5.78       3.06       6.31
H       2.76       1.75       7.08
H       3.97       0.41       7.00
H       4.08       1.79       5.86
H       3.48       2.29       9.55
H       5.25       2.43       9.81
H       4.53       0.84       9.41
C       8.11       4.46       4.72
C       7.32       7.14       7.61
C      10.54       4.93       6.25
C      12.40       5.21       4.74
C      11.74       7.04       6.28
C       8.11       1.86       6.22
C       8.89       3.02       9.99
C       5.67       2.95       7.40
C       3.81       1.50       6.88
C       4.47       1.92       9.24
N      11.54       5.68       5.81
