18

Al      -0.07       7.17       0.05
O      -2.91       8.29      -1.47
Al       3.25       7.18       0.04
O      -0.56       8.25       1.57
H       1.57       8.81      -0.53
H      -1.74       5.50      -0.45
O       2.66       5.79      -1.17
O       0.55       5.85       1.27
O       0.41       6.03      -1.45
O       2.77       6.16       1.60
O      -2.78       8.53       1.22
O      -0.64       8.48      -1.26
O       1.58       8.00      -0.00
O      -1.74       6.35       0.03
C      -1.72       8.69       1.89
C      -1.76       8.70      -1.84
C       1.56       5.60      -1.80
C       1.64       5.68       1.92
