23

Zn      -3.20      12.98       0.90
Zn      -3.84      11.43      -1.92
Zn      -1.92      10.17       0.20
Zn      -5.12      10.51       0.82
O      -3.52      11.27      -0.00
O      -3.73      14.37      -0.41
O      -2.81      10.07      -2.85
O      -0.75      10.96       1.60
O      -3.31      13.29      -2.38
O      -1.26      13.16       1.28
O      -0.99      10.09      -1.51
O      -2.58       8.40       0.83
O      -6.05      11.90       1.81
O      -4.46       9.02       1.96
O      -4.23      13.02       2.55
O      -5.78      11.21      -2.28
O      -6.29       9.76      -0.60
C      -3.52      14.32      -1.67
C      -1.57       9.84      -2.62
C      -0.53      12.20       1.71
C      -3.52       8.22       1.67
C      -5.47      12.70       2.62
C      -6.51      10.34      -1.71
