26

Ca       3.88       3.20      11.00
Ca       7.69       3.20      12.03
H       7.11       5.74      13.44
H       5.74       4.95      13.35
H       9.62       1.55      13.48
H       8.29       0.70      13.59
H       3.29       5.74       9.59
H       1.92       4.95       9.68
H       5.81       1.55       9.56
H       4.48       0.70       9.44
C       4.78       1.70      13.33
C       2.99       4.83      13.26
C       0.96       1.70       9.70
C       6.81       4.83       9.77
O       5.69       2.12      12.54
O       3.56       1.69      12.96
O       4.19       4.84      12.82
O       2.06       4.27      12.61
O       6.72       4.86      13.55
O       8.63       1.61      13.63
O       2.90       4.86       9.49
O       4.82       1.61       9.40
O       1.87       2.12      10.49
O       7.38       1.69      10.07
O       8.01       4.84      10.21
O       5.87       4.27      10.42
