23

Zn      16.27      16.34      22.46
Zn      17.81      15.44      25.13
Zn      16.05      18.13      25.14
Zn      14.62      15.26      25.00
C      18.88      14.97      22.42
C      18.57      17.81      26.68
C      16.18      19.29      22.42
C      13.47      17.60      26.43
C      13.79      14.78      22.18
C      16.22      13.28      26.43
O      16.19      16.30      24.42
O      17.92      15.50      21.78
O      18.84      16.61      26.33
O      16.10      19.45      23.69
O      19.00      14.86      23.69
O      16.25      18.19      21.78
O      17.57      18.50      26.32
O      14.41      18.43      26.17
O      13.61      14.64      23.43
O      13.41      16.38      26.06
O      14.76      15.40      21.62
O      17.34      13.83      26.16
O      15.06      13.68      26.07
