20

Zn       5.33       5.69       7.60
Zn       5.39       8.59       7.66
C       5.21       7.07       5.05
C       5.40       7.03      10.22
C       4.40      11.33       6.98
C       6.32      11.38       8.32
C       4.92       2.98       8.71
C       5.55       2.96       6.47
C       2.83       7.25       7.88
C       7.91       7.10       7.60
N       5.38      10.69       7.65
N       5.24       3.64       7.58
O       5.46       5.92       5.53
O       5.18       5.89       9.70
O       4.98       8.13       5.70
O       5.80       8.07       9.62
O       3.39       6.16       7.52
O       7.31       5.99       7.76
O       3.41       8.34       8.18
O       7.38       8.20       7.27
