18

Al      -3.11       4.62       6.08
Al       0.19       4.57       6.07
H      -1.43       6.14       6.93
H      -4.74       3.95       4.45
O      -3.59       6.46       5.72
O      -5.93       4.14       7.86
C      -4.69       7.02       6.02
C      -4.81       4.38       8.44
C      -1.56       2.21       6.16
C      -1.40       4.76       3.66
O      -0.47       2.79       5.84
O      -2.47       4.42       4.25
O      -2.64       2.80       6.47
O      -0.27       4.99       4.22
O      -5.78       6.42       6.31
O      -3.75       4.77       7.86
O      -1.45       5.22       6.64
O      -4.75       4.04       5.42
