52

Gd       5.20      13.47      36.41
Gd       2.47      16.34      37.34
C       0.48      17.80      39.49
N       8.16      12.08      33.35
H       7.45      10.37      32.37
H      -1.36      16.00      41.19
C       3.31      11.43      35.86
N      -0.49      17.73      40.40
O       0.68      16.21      35.61
O       4.65      14.02      34.04
O       0.57      17.01      38.52
H      -0.43      18.15      42.46
C       9.16      13.13      33.41
O       7.00      13.59      38.14
H       7.25      15.76      35.97
H       9.03      13.81      32.56
O       1.72      18.15      35.82
C       0.83      17.43      35.24
O       4.59      17.40      37.06
O       4.45      11.34      35.31
H       9.21      10.63      32.26
H      -1.54      19.17      41.50
O       3.08      12.40      36.69
H      -1.37      16.11      39.41
H       1.85      13.43      37.28
O       1.39      14.24      37.64
O       6.28      15.57      36.11
O       5.95      11.65      37.93
O       7.10      12.80      35.23
O       4.09      14.57      38.20
O       3.22      18.47      38.44
O       3.58      15.24      35.55
O       3.03      15.79      39.72
H       0.43      14.04      37.78
H      10.17      12.69      33.37
H       1.22      18.61      39.64
H       6.46      11.19      34.12
C       5.45      19.34      38.17
H       8.10      11.66      31.29
H       9.04      13.69      34.34
C       7.19      12.00      34.26
C      -1.49      16.68      40.34
H       5.82      16.37      36.48
C       3.94      15.03      34.33
C       4.37      18.37      37.89
C      -0.56      18.67      41.50
H      -2.49      17.11      40.38
H       0.22      19.43      41.39
C       3.73      14.78      39.42
C       8.23      11.13      32.25
C       6.84      12.38      38.52
C       2.22      10.46      35.59
