20

Zn       6.74       6.72      14.51
Zn       6.77       6.75      17.32
C       6.76       4.13      16.00
C       4.14       6.73      16.00
C       6.76       9.35      15.83
C       9.37       6.73      15.83
C       5.91       5.89      20.04
C       7.54       7.51      20.15
C       7.60       7.59      11.80
C       5.97       5.96      11.69
N       6.76       6.74      19.41
N       6.75       6.74      12.43
O       6.80       4.71      14.87
O       6.72       4.69      17.14
O       4.71       6.69      17.14
O       4.73       6.78      14.87
O       6.71       8.76      16.96
O       6.80       8.79      14.69
O       8.80       6.78      14.69
O       8.78       6.69      16.96
