16

Zn       3.28       4.27       4.40
Si      -0.53       4.27       4.40
C       2.08       4.15       7.26
C       4.49       4.40       1.53
C       2.08       7.14       4.36
C       4.49       1.40       4.44
S       4.59       4.27       7.46
S       1.98       4.28       1.33
S       4.59       7.34       4.48
S       1.98       1.21       4.31
N       3.19       4.23       6.54
N       3.38       4.32       2.26
N       3.19       6.41       4.41
N       3.38       2.13       4.38
F       1.21       4.04       4.16
F       5.35       4.50       4.63
