11

Zn      -0.00       8.13       4.29
C      -2.38       6.33       3.79
N      -1.59       6.91       4.72
C      -1.84       6.64       6.02
C       1.27       9.70       6.09
C       2.38       6.33       4.79
C       1.84       6.64       2.56
N       1.59       6.91       3.86
O       0.28       8.87       6.14
C      -1.27       9.70       2.49
O      -0.28       8.87       2.45
