10

Al       1.12      17.62      10.21
C      -0.89      17.57       8.16
C      -0.89      19.42      11.19
O       0.06      18.21       8.72
O       0.06      16.03      10.44
O       0.06      18.60      11.46
O       2.20      16.95       8.78
O       2.19      19.22      10.35
O       2.19      16.71      11.51
C      -0.89      15.87      11.27
