20

C       9.67       9.00      21.95
C       1.18      11.09      23.00
Zn       6.93      10.09      22.50
Zn       3.92      10.03      22.39
C       9.68      11.08      23.07
C       1.17       9.01      21.89
N       8.99      10.04      22.51
N       1.86      10.06      22.43
O       6.55      11.18      20.86
O       4.29       9.04      24.10
O       6.55       9.08      24.24
O       4.31      10.95      20.61
O       4.32       8.25      21.36
O       6.53      11.80      23.64
O       4.33      11.87      23.36
O       6.54       8.32      21.43
C       5.45      11.47      20.29
C       5.38       8.66      24.62
C       5.45       7.90      20.91
C       5.38      12.19      24.01
