39

Zn      33.11      19.12      13.52
N      31.56      20.01      12.25
N      34.66      18.22      14.78
N      33.11      17.33      12.25
N      33.11      20.91      14.78
N      31.56      18.22      14.78
N      34.66      20.01      12.25
Co      33.11      19.12      10.04
Co      30.28      20.76      14.68
Co      35.95      20.76      14.68
Co      33.11      15.84      14.68
Cl      33.11      19.12       7.88
Cl      37.71      21.77      15.40
Cl      33.11      13.80      15.40
Cl      28.51      21.77      15.40
C      30.46      20.65      10.48
C      36.48      17.99      15.98
C      35.77      16.77      15.98
C      29.75      21.06      11.64
C      33.11      15.23      11.64
C      33.82      22.59      15.98
C      32.40      22.59      15.98
C      33.11      16.05      10.48
C      29.75      17.99      15.98
C      36.48      21.06      11.64
C      35.77      20.65      10.48
C      30.46      16.77      15.98
N      31.58      20.00      10.91
N      35.75      18.87      15.22
N      34.65      16.96      15.22
N      30.48      20.64      12.71
N      33.11      16.07      12.71
N      34.21      21.53      15.22
N      32.01      21.53      15.22
N      33.11      17.35      10.91
N      30.48      18.87      15.22
N      35.75      20.64      12.71
N      34.65      20.00      10.91
N      31.58      16.96      15.22
