18

Mg       2.49      -0.68      14.98
Mg       4.77      -0.35      13.20
Mg       0.20       1.03      14.37
C       0.52      -1.54      12.72
C      -1.75       2.64      12.66
C       5.09      -0.49      16.24
O      -0.67      -1.47      12.27
O       0.92      -0.72      13.64
O       3.39      -1.80      13.54
O       1.62       2.39      13.87
O       3.21       0.83      13.82
O      -1.19       1.45      12.94
O       3.90      -0.92      16.41
C       2.81       2.04      13.58
C       2.83      -2.63      12.65
O       1.10       0.35      16.06
C       0.54      -0.01      17.23
O      -1.36      -0.10      15.08
