20

Zn       5.09       7.68       9.76
Zn       4.95      10.45       9.77
C       5.11       9.14       7.18
C       4.93       9.02      12.35
C       6.21       5.05      10.40
C       3.83      13.08       9.15
C       4.31       4.94       9.10
C       5.74      13.18      10.46
C       2.42       8.86       9.63
C       7.62       9.24       9.92
N       5.24       5.67       9.74
N       4.81      12.46       9.82
O       5.29       8.03       7.79
O       5.00      10.15      11.76
O       4.84       7.89      11.76
O       4.94      10.26       7.76
O       3.00       7.75       9.55
O       7.05      10.35       9.74
O       7.13       8.09      10.07
O       2.90      10.03       9.72
