23

Zn       0.07      10.78       9.67
Zn       1.59       9.26      11.95
Zn      -0.07       7.60       9.67
Zn      -1.59       9.12      11.95
O       0.00       9.19      10.81
O      -0.40       8.12       7.80
O      -1.07       8.78      13.82
O       0.41      10.25       7.80
O       1.06       9.59      13.82
O       2.81      10.74      11.52
O       1.60       6.58       9.92
O      -2.81       7.64      11.52
O      -1.60      11.79       9.92
O      -2.61      10.79      11.70
O      -1.55       6.38      10.10
O       2.61       7.59      11.70
O       1.55      12.00      10.11
C      -0.00       9.19      14.40
C       0.00       9.19       7.22
C       2.59      11.78      10.81
C       2.51       6.68      10.81
C      -2.59       6.60      10.81
C      -2.51      11.70      10.81
