15

Co      12.40      17.84       7.40
C      10.40      15.58       8.16
C      10.35      18.70       9.53
C      10.89      15.48       6.04
C      12.21      18.05      10.44
N      11.05      16.23       7.12
O      13.99      16.47       7.84
O      13.59      17.03       5.73
O      13.79      19.40       7.60
C      14.31      16.45       6.60
N      11.62      18.24       9.26
N      11.22      19.22       6.35
C       9.96      19.15       5.78
C      11.75      20.38       5.96
C      14.31      20.07       8.56
