11

C       4.50       9.62       4.28
Zn       3.99       7.10       3.49
O       3.47       8.83       4.21
C       6.09       7.39       1.36
C       1.43       6.15       2.89
C       6.38       6.66       5.26
C       4.92       4.86       5.25
C       4.65       5.59       1.10
N       4.99       6.72       1.75
N       5.23       6.11       4.84
O       2.51       5.80       3.53
