19

Sm       1.57       9.89       5.71
O       3.40       8.77       4.36
O       3.76      10.34       9.26
O       3.76      12.74       3.55
O       3.76       6.59       4.33
C      -0.59      12.54       6.77
C      -0.59       9.49       2.89
C      -0.59       7.65       7.47
N       3.09      10.17       8.24
N       3.09      11.94       4.21
N       3.09       7.56       4.69
O       2.03      10.86       7.99
O       2.03      11.38       3.73
O       2.03       7.43       5.41
O       0.03      11.60       6.20
O       0.03       9.46       3.99
O       0.03       8.62       6.95
O       3.40       9.28       7.35
O       3.40      11.62       5.42
