23

Zn      22.43       7.83       0.54
Zn      23.94      10.67       0.71
Zn      25.62       7.93       0.69
Zn      24.16       8.90      -1.96
C      21.34      10.16       2.01
C      26.44      10.32       2.24
C      24.02       5.83       2.01
C      26.74       7.48      -2.00
C      21.65       7.35      -2.27
C      24.02      11.86      -1.99
O      24.03       8.84       0.00
O      21.23       8.94       1.63
O      25.46      11.07       1.90
O      25.16       6.34       1.74
O      22.30      10.96       1.76
O      22.87       6.26       1.64
O      26.64       9.12       1.87
O      26.83       7.33      -0.73
O      22.64       7.96      -2.77
O      25.79       8.06      -2.64
O      21.40       7.20      -1.02
O      23.94      12.01      -0.73
O      24.12      10.75      -2.63
