23

Zn       9.58       8.47       8.15
Zn       8.95       5.91       6.29
Zn       7.17       8.57       6.08
Zn       7.00       6.70       8.73
C       7.64       3.93       8.03
C       8.71      10.94       6.90
C      11.68       6.77       6.94
C       4.69       7.99       7.52
C       7.86       6.94       3.82
C       8.67       7.89      10.82
O       8.18       7.41       7.32
O       6.83       4.74       8.57
O       9.67      10.34       7.47
O      10.92       5.98       6.30
O       5.27       8.47       6.50
O       8.18       5.89       4.48
O       7.93       6.92      10.45
O       7.72       8.12       4.26
O       9.32       8.69      10.08
O      11.33       7.67       7.78
O       5.21       7.47       8.56
O       8.55       4.19       7.17
O       7.71      10.48       6.29
