10

Al       4.33      21.97       4.23
C       2.16      20.20       5.25
C       2.16      23.74       5.25
C       2.16      21.97       2.18
O       3.20      22.42       2.74
O       3.20      20.46       4.58
O       3.20      23.03       5.36
O       5.46      21.52       2.74
O       5.46      23.48       4.58
O       5.46      20.91       5.36
