13

Cd       4.14       3.89       3.89
C       3.98       6.99       2.66
O       4.97       4.12       1.58
C       6.13       4.26       2.06
N       4.66       3.69       6.15
N       3.62       6.15       3.69
O       3.31       1.58       4.12
O       1.89       3.32       4.17
C       5.71       4.31       6.69
C       2.57       6.69       4.31
O       6.38       4.17       3.32
C       2.14       2.06       4.26
C       4.29       2.66       6.99
