13

C       4.87      21.80       2.01
N       5.99      17.85       0.14
C       5.92      19.92      -2.82
N       2.96      18.94       0.20
N       5.34      20.61       1.59
Zn       4.86      19.50      -0.02
C       5.70      16.73       0.89
C       1.97      19.57       0.92
C       7.28      17.71      -0.25
C       4.95      21.70      -2.05
C       2.41      17.80      -0.25
C       6.16      20.15       2.60
N       5.25      20.43      -1.73
