16

Zn       3.85       7.02       7.03
Si       7.70       7.00       7.01
C       5.03       7.07       9.87
C       2.71       6.99       9.91
N       3.83       9.20       7.05
N       3.86       4.83       7.05
N       3.84       7.04       4.85
N       3.86       7.04       9.21
C       4.99       9.90       7.00
C       2.67       9.86       7.09
C       5.02       4.16       7.09
F       5.93       7.01       7.00
F       1.76       6.99       7.02
C       2.71       4.13       7.00
C       4.99       7.00       4.14
C       2.67       7.08       4.18
