14

N      13.45      12.61       7.84
Cd      12.06      10.97       5.11
N      10.27       9.77       2.39
N      12.52      12.54       6.85
N      10.45      10.69       3.38
N      10.45      12.78       5.11
C      11.69      13.57       6.94
C       9.51      11.63       3.29
O      11.95       9.07       6.27
C      10.92       9.23       7.02
C      10.55      13.75       6.03
C       9.47      12.78       4.20
O      13.96      10.87       3.96
C      13.92      11.91       3.21
