118

Nd       6.71       3.87       4.89
Nd       6.71      -3.87       2.48
Nd      13.42       7.75      -4.89
Nd       6.71       3.87      12.25
Cu       6.71       0.00       7.36
Cu      10.06       5.81       7.36
Cu       3.35       5.81       7.36
Cu      10.06       5.81      -0.00
Cu       6.71       0.00       0.00
Cu       3.35       5.81      -0.00
H       4.59      -0.45       8.57
H      11.51       4.20       8.57
H       4.02       7.87       8.57
H      10.73       3.75      -1.20
H       4.59       0.45      -1.20
H       4.81       7.42      -1.20
H       8.83       0.45       6.16
H       8.61       7.42       6.16
H       2.69       3.75       6.16
H       9.40       7.87       1.20
H       8.83      -0.45       1.20
H       1.90       4.20       1.20
C       4.78       2.12       6.40
C       4.05       1.10       7.28
C       5.24       1.32       9.44
C       6.74       1.44       9.71
C       9.19       3.08       6.40
C      10.44       2.96       7.28
C       9.66       3.88       9.44
C       8.80       5.11       9.71
C       6.15       6.42       6.40
C       5.63       7.56       7.28
C       5.23       6.42       9.44
C       4.59       5.06       9.71
C      12.86       5.20       0.96
C      12.34       4.06       0.09
C      11.93       5.20      -2.07
C      11.30       6.55      -2.34
C       4.78      -2.12       0.96
C       4.05      -1.10       0.09
C       5.24      -1.32      -2.07
C       6.74      -1.44      -2.34
C       2.48       8.54       0.96
C       3.73       8.66       0.09
C       2.95       7.74      -2.07
C       2.09       6.51      -2.34
C       8.64      -2.12       8.33
C       9.37      -1.10       7.45
C       8.17      -1.32       5.29
C       6.68      -1.44       5.02
C      10.93       8.54       8.33
C       9.68       8.66       7.45
C      10.47       7.74       5.29
C      11.32       6.51       5.02
C       0.55       5.20       8.33
C       1.07       4.06       7.45
C       1.48       5.20       5.29
C       2.12       6.55       5.02
C       7.26       6.42      -0.96
C       7.78       7.56      -0.09
C       8.19       6.42       2.07
C       8.83       5.06       2.34
C       8.64       2.12      -0.96
C       9.37       1.10      -0.09
C       8.17       1.32       2.07
C       6.68       1.44       2.34
C       4.22       3.08      -0.96
C       2.98       2.96      -0.09
C       3.76       3.88       2.07
C       4.62       5.11       2.34
N       4.94       0.47       8.26
N      10.53       4.04       8.26
N       4.65       7.10       8.26
N      11.35       4.52      -0.90
N       4.94      -0.47      -0.90
N       3.83       7.57      -0.90
N       8.47      -0.47       6.47
N       9.59       7.57       6.47
N       2.06       4.52       6.47
N       8.77       7.10       0.90
N       8.47       0.47       0.90
N       2.88       4.04       0.90
O       6.05       2.18       6.52
O       7.56       0.89       8.90
O       7.11       2.10      10.72
O       8.50       4.15       6.52
O       8.86       6.10       8.90
O       8.04       5.11      10.72
O       5.57       5.29       6.52
O       3.70       4.63       8.90
O       4.97       4.41      10.72
O      12.28       6.33       0.85
O      10.41       6.99      -1.54
O      11.68       7.21      -3.35
O       6.05      -2.18       0.85
O       7.56      -0.89      -1.54
O       7.11      -2.10      -3.35
O       1.79       7.47       0.85
O       2.15       5.52      -1.54
O       1.34       6.51      -3.35
O       7.37      -2.18       8.21
O       5.86      -0.89       5.83
O       6.31      -2.10       4.01
O      11.62       7.47       8.21
O      11.26       5.52       5.83
O      12.08       6.51       4.01
O       1.13       6.33       8.21
O       3.01       6.99       5.83
O       1.74       7.21       4.01
O       7.84       5.29      -0.85
O       9.71       4.63       1.54
O       8.44       4.41       3.35
O       7.37       2.18      -0.85
O       5.86       0.89       1.54
O       6.31       2.10       3.35
O       4.92       4.15      -0.85
O       4.55       6.10       1.54
O       5.37       5.11       3.35
