24

O      13.61       2.21      27.45
O      14.95      -0.13      27.33
Al      14.28       0.95      28.85
O      17.22      -0.26      27.46
Al      16.00       3.66      28.74
O      12.77       0.08      28.94
Al      17.49       1.05      28.75
O      18.43       1.95      27.38
H      12.31      -0.07      28.10
C      16.09      -0.45      26.88
C      18.09       3.08      26.87
C      14.00       3.28      26.89
C      16.24      -0.44      30.69
C      18.09       3.16      30.61
C      14.07       3.30      30.69
O      17.36       3.96      27.45
O      14.85       4.13      27.37
O      13.77       2.13      30.32
O      15.09      -0.21      30.22
O      17.37      -0.19      30.11
O      18.46       2.08      30.05
O      17.27       4.01      30.12
O      14.75       4.16      30.02
O      15.94       1.90      28.77
