23

Zn      10.50      14.90       0.56
Zn       7.26      14.95       0.73
Zn       8.80      15.82      -2.00
Zn       8.90      17.70       0.58
C       8.92      12.91       2.06
C      11.31      14.31      -2.21
C      11.48      17.28       1.96
C       6.24      14.34      -1.95
C       6.43      17.40       2.12
C       8.84      18.75      -2.16
O       8.86      15.83      -0.03
O       7.77      13.35       1.77
O      10.05      13.37       1.72
O      10.37      14.94      -2.79
O      11.50      14.17      -0.96
O      10.48      18.02       1.70
O      11.70      16.10       1.56
O       7.22      14.82      -2.60
O       6.04      14.36      -0.70
O       7.33      18.16       1.66
O       6.27      16.15       1.93
O       8.94      18.96      -0.91
O       8.75      17.63      -2.76
