14

C       2.90       5.54      10.10
C       5.26       7.90       8.98
Zn       5.40       5.34      10.87
Zn       5.43       5.41       8.18
O       5.32       3.48       7.85
O       7.32       5.45      11.16
O       3.49       5.49      11.24
O       5.29       7.33       7.82
O       3.48       5.41       8.97
O       5.40       7.30      10.09
O       5.36       3.42      10.13
O       7.36       5.42       8.88
C       5.27       2.87       8.99
C       7.92       5.52      10.02
