23

Zn       2.99       3.61       8.24
C       7.12       1.21       9.60
Zn       4.68       2.62       5.61
Zn       4.54       0.83       8.22
Zn       6.18       3.65       8.23
O       3.14       3.55       4.84
O       7.17       4.55       6.79
O       1.80       2.46       9.31
O       4.59       2.69       7.58
O       6.36       3.42       4.98
O       2.93       0.49       9.30
O       7.31       2.42       9.24
O       2.00       4.27       6.68
O       5.68       5.18       9.36
O       4.76       0.78       4.93
O       3.41       5.08       9.49
O       4.32      -0.49       6.77
O       6.14       0.46       9.27
C       2.17       4.14       5.42
C       4.55       5.58       9.78
C       4.51      -0.32       5.52
C       7.14       4.26       5.54
C       1.97       1.24       9.65
