18

Mg      -0.14      -1.05      20.81
Mg      -2.41       0.61      21.55
Mg       2.12       0.42      19.74
C      -0.49      -0.26      23.73
C       4.05       2.75      19.41
C       1.78      -2.50      18.95
O       2.99       0.77      23.00
O       0.73       1.60      18.87
O      -1.54      -2.39      20.22
O       1.42       0.03      21.61
O      -0.85       0.77      20.21
O      -3.11      -0.81      20.27
O      -1.04      -0.50      22.53
O       3.49       1.83      20.20
O       1.22      -1.35      19.35
C       1.81       0.34      22.80
C      -0.45       1.65      19.35
C      -2.72      -2.00      19.94
