20

Zn       7.82       8.60       9.01
Zn      10.60       8.84       8.89
C       9.30       8.71      11.57
C       9.30       6.09       8.95
C       9.12       8.73       6.32
C       9.12      11.35       8.94
C      13.39       8.07       9.60
C      13.30       9.69       7.97
C       5.03       9.36       8.29
C       5.13       7.75       9.92
N      12.65       8.86       8.81
N       5.77       8.57       9.08
O       8.14       8.59      11.04
O      10.40       8.82      10.94
O      10.36       6.79       8.91
O       8.11       6.55       9.00
O      10.28       8.84       6.85
O       8.02       8.63       6.96
O       8.06      10.65       8.99
O      10.31      10.89       8.89
