23

Zn      -3.18      13.06       0.84
Zn      -3.90      11.56      -1.91
Zn      -1.96      10.21       0.26
Zn      -5.12      10.51       0.80
O      -3.54      11.33      -0.00
O      -2.97      14.41      -0.57
O      -2.45      10.76      -2.98
O      -0.45      11.25       0.97
O      -4.10      13.47      -2.29
O      -1.55      12.99       1.93
O      -1.34       9.49      -1.45
O      -2.41       8.77       1.52
O      -5.74      11.56       2.34
O      -4.67       8.67       1.34
O      -4.62      13.54       2.09
O      -5.53      10.60      -2.44
O      -6.63      10.47      -0.46
C      -3.54      14.47      -1.72
C      -1.58       9.90      -2.64
C      -0.50      12.28       1.74
C      -3.54       8.19       1.72
C      -5.49      12.78       2.64
C      -6.58      10.38      -1.74
