23

Zn      18.42       7.27       8.83
Zn      16.93       4.43       8.72
Zn      18.66       5.46       6.20
Zn      20.11       4.52       8.87
O      18.52       5.43       8.15
O      16.79       7.55       9.88
C      15.82       6.75      10.15
C      18.53       8.42       6.14
O      18.60       7.30       5.54
O      18.47       8.61       7.41
C      20.96       6.94      10.43
O      15.91       3.78       7.14
O      15.71       5.53       9.78
C      16.10       3.90       5.87
O      19.95       7.64      10.04
O      17.39       2.84       9.77
C      18.53       2.40      10.15
O      17.12       4.52       5.37
O      20.28       4.61       5.50
O      21.14       5.72      10.05
O      21.32       3.97       7.43
O      19.67       2.92       9.90
C      21.24       4.08       6.17
