13

C       0.00      30.24      23.53
C       1.52      31.59      18.24
C      -0.36      32.00      19.27
C       3.79      31.12      22.56
C      -0.48      27.86      20.87
Zn       1.40      30.19      20.90
C       0.30      32.30      22.91
C       4.49      30.12      20.80
N       0.84      31.31      19.36
N       3.36      30.48      21.43
N       0.84      28.29      20.91
N       0.48      30.99      22.52
C       1.59      27.17      20.93
