17

N       2.17       7.60       1.34
N       0.78       7.97      -1.04
C       3.46      11.24      -1.14
Ni       2.18       9.05      -0.00
C       1.96      10.16      -2.76
C       3.63      11.45       0.35
H       1.41      11.11      -0.97
N       2.19      10.51      -1.33
N       3.59      10.14       1.04
H       2.96       7.00       0.97
C      -0.56       8.63      -1.16
C       1.19       7.88      -2.47
C       2.41       7.95       2.76
C       0.90       6.87       1.14
C       0.73       6.65      -0.35
C       3.18      10.22       2.47
C       4.92       9.48       1.16
