24

Zn       4.33      -1.03       9.26
Zn       8.86      -4.45      10.97
H       3.90      -0.01       6.89
H       8.43      -5.47      13.34
H       5.53       0.03       7.21
H      10.06      -5.51      13.02
C       2.70       1.16      10.23
C       7.23      -6.64      10.00
C       1.97      -2.70      10.00
C       6.50      -2.79      10.23
C       4.87      -1.71       6.39
C       9.40      -3.77      13.84
C       3.38      -3.89       8.86
C       7.91      -1.60      11.37
C       2.38      -4.73       9.29
C       6.91      -0.76      10.94
N       1.48      -3.95      10.02
N       6.01      -1.53      10.21
N       3.12      -2.60       9.31
N       7.65      -2.88      10.92
N       4.67      -0.56       7.28
N       9.21      -4.92      12.95
O       3.89       0.78       9.93
O       8.42      -6.26      10.30
