10

Al       0.00       7.30       4.22
O       1.05       6.69       2.74
O       1.05       8.89       4.43
O       1.05       6.33       5.49
O      -1.05       7.92       2.74
O      -1.05       5.71       4.43
O      -1.05       8.28       5.49
C       2.00       7.30       2.15
C       2.00       9.09       5.25
C       2.00       5.52       5.25
