23

Zn      10.32      11.77       9.43
Zn      12.41      11.04       7.20
Zn      12.62      13.86       8.95
Zn      10.55      13.51       6.60
C      11.62      11.79       4.50
C      11.32      13.48      11.58
C      11.25       9.04       8.98
C      11.70      16.12       7.28
C      14.96      12.23       8.14
C       8.00      12.52       7.75
O      11.47      12.55       8.05
O      14.34      11.29       7.54
O       8.62      13.14       6.82
O      14.48      13.26       8.71
O       8.47      11.88       8.74
O      10.86       9.91       9.84
O      10.84      15.45       6.61
O      11.98      10.86       5.29
O      12.24      14.02      10.86
O      11.23      12.96       4.83
O      10.43      12.67      11.17
O      11.75       9.29       7.83
O      12.45      15.67       8.21
