15

N       5.59      20.98      20.52
N       5.80      20.39      21.74
N       4.17      17.14      22.42
N       3.10      16.70      21.68
N       2.02      18.79      18.82
N       2.73      19.91      18.48
Cu       4.95      18.78      22.07
Cu       4.21      20.39      19.47
Cu       2.58      17.74      20.24
C       0.90      18.75      18.07
C       2.05      20.57      17.52
C       6.70      21.11      22.42
C       6.38      22.08      20.45
C       2.70      15.52      22.18
C       4.42      16.23      23.38
