23

Zn      12.78      14.82       8.61
Zn      11.53      17.59       9.29
Zn      13.51      16.36      11.43
Zn      14.76      17.29       8.74
O      13.14      16.51       9.52
O      10.92      14.63       7.97
O      10.61      17.70      11.03
O      13.20      14.48      11.93
O      10.17      16.78       8.11
O      13.09      13.39       9.92
O      12.43      17.71      12.38
O      15.36      16.80      11.94
O      15.67      15.89       7.70
O      16.11      17.84      10.06
O      13.85      14.76       6.97
O      12.08      19.29       8.47
O      14.21      18.90       7.75
C      10.07      15.56       7.76
C      11.20      17.95      12.15
C      13.14      13.43      11.20
C      16.22      17.47      11.28
C      15.09      15.08       6.89
C      13.15      19.60       7.84
