10

Al       3.92      20.99      12.12
O       4.98      22.16      11.05
O       4.98      21.33      13.67
O       4.98      19.48      11.63
O       2.79      22.53      12.00
O       2.79      20.12      10.85
O       2.79      20.32      13.51
C       6.05      22.81      11.20
C       6.05      20.87      14.15
C       6.05      19.29      11.00
