18

Al      -0.23      10.81       7.60
O       2.52      12.16       6.34
Al       3.08      10.84       7.64
O      -0.74       9.59       9.00
O       0.31      12.14       8.90
O      -3.05       9.62       6.24
O       0.29      11.94       6.15
O      -3.00       9.60       8.99
O      -0.78       9.52       6.28
O       2.57      12.04       9.06
H       1.43       9.23       8.26
O       1.43      10.00       7.66
H      -1.88      12.48       7.09
O      -1.88      11.65       7.59
C       1.42      12.47       9.42
C      -1.92       9.20       5.82
C       1.40      12.46       5.82
C      -1.87       9.20       9.43
