23

Zn      16.07      16.26      22.39
Zn      17.58      15.33      25.01
Zn      15.78      18.02      25.08
Zn      14.38      15.15      24.92
C      18.65      14.85      22.31
C      18.36      17.74      26.51
C      15.94      19.20      22.37
C      13.20      17.45      26.36
C      13.61      14.65      22.10
C      16.05      13.19      26.33
O      15.95      16.20      24.35
O      17.71      15.45      21.68
O      18.68      16.60      26.03
O      15.88      19.34      23.64
O      18.73      14.68      23.57
O      15.97      18.10      21.72
O      17.26      18.35      26.36
O      14.13      18.30      26.10
O      13.31      14.64      23.34
O      13.18      16.22      26.02
O      14.62      15.20      21.56
O      17.15      13.81      26.17
O      14.90      13.53      25.89
