66

Zr      19.01      10.62       5.46
O      19.37      10.81       7.50
Zr      20.71      13.72       5.38
O      20.75      11.67       5.05
Zr      20.89       9.65       8.30
Zr      22.55      10.68       5.34
Zr      19.05      12.68       8.34
H      17.94      13.22       5.80
O      22.30      10.87       7.39
H      20.84       8.46       5.72
O      20.78      13.38       7.43
Zr      22.59      12.75       8.23
H      23.52      13.33       5.60
H      20.89      11.72      10.25
H      28.06       9.80       4.49
H      13.54      13.17       9.49
O      27.26      10.14       4.92
O      14.34      12.84       9.05
C      16.32      11.54       7.08
C      20.82      14.38      10.43
C      25.28      11.62       6.77
C      20.77       9.21       3.11
C      18.38      12.87       3.24
C      18.53       7.82       6.96
C      23.21      10.51      10.45
C      22.91      15.64       6.86
C      18.59      15.60       6.90
C      22.79      13.01       3.03
C      23.18       7.87       6.92
C      18.64      10.26      10.53
C      27.63      10.86       6.01
C      13.96      12.10       7.98
C      26.73      11.52       6.85
C      14.86      11.48       7.11
C      12.62      11.85       7.58
C      12.53      11.06       6.43
S      27.52      12.36       8.16
S      14.07      10.60       5.83
O      16.88      10.89       6.12
O      21.96      14.06       9.94
O      24.72      12.32       7.69
O      19.63       9.47       3.64
O      19.28      13.67       3.66
O      19.43       7.96       7.86
O      22.39       9.66       9.96
O      22.06      15.47       5.92
O      18.30      14.78       7.84
O      23.16      11.87       3.49
O      23.42       8.65       5.93
O      18.33      11.43      10.11
O      21.96      13.81       3.57
O      22.31       8.03       7.83
O      19.55       9.51      10.05
O      19.38      15.39       5.92
O      18.15      11.71       3.75
O      23.26      14.77       7.74
O      23.44      11.66       9.95
O      18.28       8.64       6.01
O      21.92       9.48       3.60
O      16.91      12.24       7.97
O      19.67      13.99      10.01
O      24.69      11.03       5.80
O      20.83       9.38       6.04
O      22.74      12.86       5.95
O      20.86      11.71       9.28
O      18.76      12.79       6.10
