24

Al      11.82       1.04       0.35
Al      10.20       3.80       0.37
Al       8.63       1.26       0.47
C      12.42       3.62      -1.20
C       8.18       3.12      -1.61
C       9.86      -0.38      -1.41
C      12.14       3.20       2.35
C       8.06       3.52       2.16
C       9.92      -0.23       2.38
O      11.03       0.01      -1.15
O      12.56       2.40      -0.91
O      11.53       4.43      -0.73
O       9.00       3.98      -1.15
O       7.74       2.10      -0.97
O       8.82      -0.19      -0.67
O      11.01      -0.12       1.76
O      12.45       2.10       1.80
H      13.43      -0.50      -0.41
O      11.33       4.07       1.85
O       8.83       4.35       1.54
O       8.76       0.13       1.94
O      10.20       2.04       0.39
O       7.70       2.39       1.68
O      13.30       0.09       0.34
