24

Al       8.42       4.90      13.94
Al      10.04       7.67      13.84
Al      11.62       5.13      13.81
O       9.25       3.73      15.25
O       7.90       6.09      15.44
O      11.35       8.05      12.52
O       8.80       8.16      15.13
O      11.34       8.04      15.19
O      12.50       6.08      15.21
O      11.52       3.74      15.03
O       9.14       3.85      12.43
O       7.69       6.13      12.58
O       8.84       8.08      12.48
O      12.59       6.16      12.55
O      11.41       3.95      12.38
O      10.04       5.91      13.86
O       6.93       3.97      14.03
H       6.21       4.27      13.46
C       8.13       7.28      15.80
C      12.15       7.20      15.72
C      10.41       3.45      15.64
C       8.04       7.19      11.99
C      12.17       7.22      11.98
C      10.26       3.66      11.87
