20

Dy       3.21       0.93       3.76
Dy      -1.32       0.50       3.01
C       0.71       2.73       4.55
C       5.38      -1.42       2.72
O      -0.22      -1.24       4.02
O       1.88      -0.67       4.60
O      -0.06       1.13       1.24
O       2.09       0.89       1.84
O       6.58       0.55       4.79
O       4.49       0.45       5.59
O       6.77       2.39       2.44
O       4.64       2.55       3.14
O       4.35      -0.69       2.71
O       6.50      -1.05       2.23
O       1.98       2.78       4.47
O       0.06       1.66       4.31
C       0.81      -1.34       4.76
C       1.17       1.50       1.21
C       5.75       0.31       5.73
C       5.73       3.06       2.72
