18

Al       5.96      12.35       9.93
Al       2.62      12.34       9.94
H       4.30      10.59      10.14
H       7.64      13.95       9.26
C       4.29      13.60       7.86
C       4.29      14.24      11.42
C       7.63      11.10      11.99
C       7.64      10.43       8.44
O       3.15      13.80      11.07
O       5.43      13.32       8.34
O       6.50      10.85       8.81
O       5.43      13.82      11.04
O       6.49      11.38      11.50
O       3.15      13.33       8.37
O       4.29      11.56      10.06
O       8.77      11.36      11.50
O       8.78      10.85       8.81
O       7.64      13.12       9.76
