10

Al       3.96      20.14      17.44
C       5.94      21.92      16.43
O       5.01      18.55      17.26
O       5.01      21.10      16.16
O       5.01      20.78      18.92
O       2.91      19.21      16.15
O       2.91      19.49      18.90
O       2.91      21.74      17.28
C       5.94      18.38      16.41
C       5.94      20.13      19.49
