15

C      19.36      25.58       1.74
Cu      20.31      29.95       5.34
Cu      21.66      28.60       2.80
Cu      19.05      27.32       4.07
N      22.39      30.15       3.49
N      21.87      30.67       4.66
N      18.78      29.24       6.07
N      18.33      28.01       5.62
N      19.74      26.60       2.52
N      20.96      27.06       2.07
C      22.62      31.73       5.03
C      23.44      30.91       3.13
C      17.31      27.62       6.41
C      18.01      29.61       7.11
C      21.34      26.30       1.03
