24

Al      11.22       1.04      28.49
Al       9.59       3.81      28.50
Al       8.01       1.26      28.50
C      11.55       3.35      26.60
C       7.50       3.36      26.62
C       9.28      -0.31      26.62
C      11.54       3.39      30.41
C       7.45       3.37      30.33
C       9.29      -0.30      30.42
O      10.41      -0.11      27.13
O      11.81       2.18      27.02
O      10.88       4.25      27.23
O       8.35       4.18      27.11
O       7.09       2.29      27.19
O       8.14      -0.01      27.16
O      10.45      -0.01      30.00
O      11.88       2.28      29.91
O      10.75       4.26      29.88
O       8.23       4.20      29.76
O       7.10       2.23      29.86
O       8.17      -0.06      29.81
O       9.59       2.05      28.51
O      12.70       0.11      28.48
H      13.18       0.07      29.31
