20

Zn       7.16       8.73       6.71
Zn       7.17       5.91       6.51
C       7.22       7.63       4.01
C       9.78       7.24       6.55
C       8.01       3.34       5.45
C       7.47       7.07       9.17
C       6.14       3.04       6.81
C       8.32      11.43       6.69
C       6.46      11.26       8.08
C       4.57       7.46       6.57
N       7.33      10.70       7.19
N       7.09       3.85       6.26
O       7.39       8.71       4.66
O       7.01       6.48       4.51
O       9.19       8.33       6.86
O       9.19       6.14       6.27
O       7.00       8.16       8.70
O       7.49       5.95       8.56
O       5.11       8.61       6.50
O       5.20       6.37       6.71
