23

Zn      18.28       5.23      13.23
Zn      18.25       3.31      15.83
Zn      16.67       6.13      15.83
Zn      19.87       6.08      15.85
O      18.25       5.17      15.20
O      20.95       4.94      17.03
O      18.32       3.38      12.58
O      16.66       6.07      12.52
O      18.00       2.01      14.37
O      17.12       7.73      16.87
O      16.84       3.02      17.18
O      20.95       6.79      14.39
O      15.56       4.88      16.87
O      19.83       6.15      12.50
O      19.40       7.59      17.03
O      19.98       2.92      16.66
O      15.51       6.74      14.37
C      20.86       3.68      17.19
C      15.66       6.60      13.11
C      18.15       2.25      13.13
C      18.27       8.12      17.29
C      15.81       3.75      17.38
C      20.80       6.73      13.12
