20

Zn       7.57       7.75       9.86
Zn       7.57      10.57       9.86
C       7.58       9.16       7.23
C       7.57       9.16      12.49
C       8.39       5.01      10.68
C       6.76      13.31       9.04
C       6.76       5.01       9.04
C       8.39      13.31      10.68
C       4.96       9.16       9.84
C      10.19       9.16       9.88
N       7.57       5.69       9.86
N       7.57      12.63       9.86
O       7.57       8.02       7.80
O       7.58      10.29      11.92
O       7.58       8.02      11.92
O       7.57      10.29       7.80
O       5.54       8.02       9.84
O       9.61      10.29       9.88
O       9.61       8.02       9.88
O       5.54      10.29       9.84
