23

Zn     -12.75      14.65      11.08
Zn     -13.54      17.67      11.08
Zn     -11.60      16.42       8.75
Zn     -14.68      15.91       8.75
O     -13.14      16.16       9.91
O     -13.34      15.05      12.89
O     -12.44      19.19      10.35
O     -10.41      14.88       8.85
O     -12.95      17.28      12.89
O     -10.85      14.19      10.97
O     -10.67      18.04       9.48
O     -12.20      16.80       6.93
O     -15.62      14.28       9.48
O     -14.08      15.53       6.93
O     -13.85      13.13      10.34
O     -15.43      18.13      10.97
O     -15.88      17.45       8.85
C     -13.14      16.16      13.49
C     -11.25      19.08       9.91
C     -10.13      14.21       9.91
C     -13.14      16.16       6.33
C     -15.03      13.24       9.91
C     -16.16      18.12       9.91
