117

Ni      15.46       6.23      16.21
Ni      10.60      10.29      21.62
Ni      21.40       4.05      10.81
Ni      12.00      10.58      18.40
Ni      20.44       5.11       7.58
Ni      15.03       4.87      12.99
Ni      12.00       9.99      24.85
Ni      14.50       5.18      19.44
Ni      20.96       5.41      14.04
H      12.72      10.82      15.93
H      19.87       5.61       5.12
H      14.87       4.12      10.52
H      12.72       9.75      27.32
H      13.93       4.67      21.91
H      20.81       6.16      16.51
H      11.60      12.00      16.32
H      19.41       4.05       5.51
H      16.46       4.51      10.91
H      11.60       8.56      26.93
H      13.48       6.24      21.52
H      22.39       5.77      16.12
H      13.31      12.07      20.22
H      18.50       5.50       9.41
H      15.66       2.99      14.81
H      13.32       8.50      23.03
H      12.56       4.78      17.62
H      21.59       7.29      12.22
H      10.28       8.60      17.37
H      23.01       4.61       6.55
H      14.17       7.36      11.95
H      10.27      11.96      25.88
H      17.08       5.67      20.48
H      20.11       2.93      15.07
H      14.40      11.42      19.28
H      18.51       6.78       8.47
H      14.55       2.37      13.87
H      14.41       9.15      23.97
H      12.58       3.51      18.56
H      20.48       7.91      13.16
H       9.78       9.13      18.77
H      22.80       3.90       7.96
H      14.89       7.53      13.36
H       9.77      11.43      24.48
H      16.87       6.38      19.07
H      20.82       2.76      13.66
C      13.33       8.14      19.10
C      10.03       7.48      24.51
C      12.25       4.95      13.69
C      13.32      12.44      24.15
C      15.96       2.81      18.74
C      18.18       5.34      13.34
C      13.87       8.40      17.04
C       9.54       7.82      22.45
C      12.20       4.35      11.64
C      19.80       1.89       9.98
C      15.46       2.47      20.79
C      18.13       5.94      15.39
C      12.78       8.52      20.42
C      21.84       6.81       9.61
C      12.86       5.24      15.01
C      12.77      12.05      22.83
C      15.90       3.48      17.42
C      18.79       5.05      12.02
C      14.14       8.79      15.62
C       9.06       7.86      21.03
C      12.41       3.91      10.22
C      20.07       1.50      11.40
C      14.98       2.43      22.21
C      18.34       6.37      16.81
N      14.33       7.21      17.45
N      10.34       8.81      22.86
N      10.94       4.55      12.05
N      20.26       3.08       9.57
N      16.27       1.47      20.39
N      16.87       5.74      14.98
N      13.22       9.01      18.06
N       9.33       6.95      23.46
N      13.06       4.61      12.65
N      13.21      11.56      25.19
N      15.26       3.34      19.78
N      18.99       5.68      14.38
N      14.00       7.03      18.74
N      10.66       8.62      24.15
N      10.95       4.93      13.34
N      19.93       3.26       8.29
N      16.59       1.67      19.10
N      16.88       5.36      13.69
O      12.05       9.58      20.35
O      21.29       5.64       9.53
O      14.14       5.34      14.93
O      12.03      10.99      22.90
O      15.35       4.64      17.50
O      20.07       4.94      12.09
O      14.98       7.99      15.05
O       9.33       8.98      20.46
O      11.29       3.59       9.65
O      20.91       2.29      11.98
O      15.26       1.30      22.79
O      17.23       6.70      17.38
O      13.53      11.86      19.26
O      18.57       5.81       8.46
O      15.36       2.91      13.86
O      13.54       8.72      23.98
O      12.64       4.48      18.57
O      21.29       7.38      13.17
O      10.21       9.41      17.91
O      22.35       4.14       7.09
O      14.91       7.02      12.50
O      10.20      11.16      25.34
O      16.42       6.14      19.93
O      20.84       3.27      14.53
O      12.39      11.49      16.61
O      19.45       5.00       5.80
O      15.62       4.07      11.20
O      12.40       9.07      26.64
O      13.51       5.29      21.23
O      21.55       6.21      15.83
