18

Al       1.78       5.71      16.10
C       3.44       4.14      17.98
Al       5.13       5.66      16.12
C       0.10       7.23      14.23
C       3.44       4.00      14.38
O       2.31       4.43      14.78
C       0.09       7.37      17.84
O       5.66       6.94      17.44
O       1.25       6.90      14.67
O       4.59       4.47      17.55
O       3.46       6.48      16.09
O       0.12       4.89      16.13
O       2.31       4.51      17.54
O       4.58       4.34      14.84
O       1.23       7.03      17.38
H       3.49       7.44      16.20
O      -1.04       6.86      14.68
H       0.14       3.93      16.02
