10

Al       0.30       7.05      12.19
C       2.30       5.24      11.24
C       2.31       8.78      11.10
C       2.31       7.14      14.24
O       1.35       7.73      13.65
O       1.36       5.47      12.06
O       1.36       7.96      10.89
O      -0.76       6.51      13.69
O      -0.75       8.62      11.92
O      -0.75       6.02      10.97
