20

Zn       5.53       8.33       2.21
Zn       5.55       5.55       2.20
N       5.54      10.38       2.22
N       5.52       3.50       2.22
O       5.41       8.03       0.18
O       5.83       5.80       0.17
O       3.54       5.85       1.93
O       3.48       8.08       2.28
O       5.37       5.82       4.24
O       5.66       8.07       4.25
O       7.59       8.05       2.10
O       7.59       5.81       2.47
C       5.62       6.92      -0.41
C       2.93       6.96       2.06
C       5.56       6.94       4.82
C       8.16       6.93       2.23
C       6.26      11.05       3.14
C       4.82      11.05       1.31
C       4.57       2.83       1.55
C       6.47       2.83       2.90
