11

C       6.20      16.37       6.84
N       3.84      17.61      10.07
C       3.28      18.14      11.21
Cd       5.83      16.70       9.65
O       6.97      15.98       7.81
C       2.98      17.86       9.08
C       6.12      14.22      10.82
N       7.22      18.48      10.02
C       8.36      18.43      10.78
O       6.80      15.25      11.15
C       7.29      19.62       9.30
