20

Zn       9.59       8.52      25.30
Zn       6.76       8.46      25.28
N       4.70       8.56      25.15
N      11.65       8.60      25.28
O       9.35       6.50      25.48
O       7.11       6.51      25.85
O       7.12       7.85      23.33
O       9.36       8.24      23.25
O       7.06      10.41      24.63
O       9.29      10.52      25.04
O       9.23       8.73      27.31
O       6.98       9.03      27.24
C       8.22       5.93      25.65
C       8.22       8.04      22.72
C       8.16      11.04      24.77
C       8.09       8.87      27.85
C       4.04       8.05      24.10
C       4.04       9.19      26.14
C      12.32       7.75      24.48
C      12.31       9.52      26.00
