23

O      18.22       7.80       8.24
Zn      18.56       9.69       8.74
Zn      16.63      10.68      11.14
Zn      15.38       9.57       8.32
Zn      16.82      12.39       8.56
O      17.08      12.53      11.70
O      16.36      13.72       9.90
O      14.09       9.00       9.72
O      14.76      10.24      11.53
O      14.51      10.64       6.90
O      15.86      12.48       6.85
O      16.83      10.54       9.19
C      19.29       9.66      11.56
C      19.13      11.90       7.05
C      17.21       7.38       7.60
C      16.79      13.60      11.10
C      13.96       9.48      10.89
C      14.97      11.71       6.39
O      18.09       9.70      12.00
O      19.68       9.76      10.36
O      18.69      12.69       7.95
O      19.21      10.64       7.13
O      16.11       7.99       7.39
