20

Zn      10.63       9.55       5.30
O      13.20       9.59       7.14
Zn      13.47       9.37       5.08
O      13.14       9.22       3.05
O      10.79       7.51       5.37
O      13.25      11.43       4.94
O      13.05       7.37       5.23
O      11.02      11.56       5.37
C      12.13       9.66       7.82
C      11.97       9.34       2.57
C      16.15       9.77       6.26
C      11.89       6.86       5.28
C      16.22       9.12       4.03
C      12.17      12.07       5.17
C       7.88       9.42       6.43
C       7.93       9.83       4.14
N      15.51       9.40       5.13
N       8.58       9.64       5.30
O      10.90       9.53       3.25
O      10.94       9.55       7.38
