23

Zn      19.89       9.60       0.82
Zn      20.58      11.10      -1.92
Zn      18.67      12.50       0.27
Zn      21.80      12.20       0.82
O      20.23      11.35      -0.00
O      20.01       8.14      -0.48
O      19.25      12.07      -3.00
O      17.24      11.58       1.24
O      20.46       9.21      -2.44
O      18.13       9.53       1.68
O      17.90      13.06      -1.46
O      19.12      14.14       1.24
O      22.56      11.05       2.23
O      21.35      13.91       1.68
O      21.21       9.21       2.23
O      22.34      11.78      -2.44
O      23.23      12.52      -0.48
C      20.23       8.17      -1.74
C      18.26      12.80      -2.65
C      17.20      10.40       1.74
C      20.23      14.53       1.74
C      22.20       9.90       2.65
C      23.27      12.30      -1.74
