20

Zn       4.24       6.44       6.34
Zn       1.57       5.53       6.55
C       3.03       6.10       9.00
C       2.22       8.52       6.19
C       3.02       5.85       3.84
C      -1.08       4.84       5.29
C      -1.29       6.04       7.26
C       7.02       5.84       5.72
C       6.82       7.06       7.71
C       3.39       3.43       6.38
N       6.27       6.50       6.59
N      -0.51       5.40       6.42
O       3.89       6.74       8.31
O       2.02       5.48       8.54
O       3.45       8.33       5.88
O       1.45       7.60       6.61
O       4.17       6.04       4.34
O       1.93       5.74       4.48
O       4.21       4.36       6.65
O       2.12       3.57       6.29
