23

Zn       9.16       7.58      10.24
Zn       7.49       9.10       7.96
Zn       9.11      10.79      10.18
Zn      10.67       9.17       7.89
O       9.07      10.38      12.11
O      10.16       9.23       5.99
O       9.28       8.10      12.15
O       6.55       7.41       8.24
O      10.70      11.88       9.85
O       9.11       9.16       9.08
O       6.32      10.64       8.31
O      11.78       7.57       8.16
O       7.53      11.89       9.79
O      10.73       6.47       9.86
O       7.52       6.51      10.10
O      11.81      10.73       8.21
O       7.88       9.11       6.03
C       9.01       9.16       5.44
C       9.17       9.24      12.70
C       6.64       6.53       9.17
C      11.67      11.70       9.03
C       6.52      11.67       9.03
C      11.67       6.63       9.01
