10

O       1.18       6.22       5.43
Al       0.11       7.11       4.13
O      -0.94       5.53       4.40
O      -0.95       7.67       2.65
O      -0.95       8.14       5.36
C      -1.91       8.94       5.09
C       2.11       5.37       5.22
C      -1.90       7.04       2.07
O       1.17       6.43       2.68
O       1.18       8.69       4.25
