18

Al       2.32       0.39       0.40
Al       5.66       0.40       0.40
O       5.14      -0.87       1.76
O       2.84      -0.80      -1.02
O       1.77       1.70      -0.90
O       2.86      -0.92       1.70
O       1.79       1.58       1.84
O       5.12      -0.84      -0.97
H       3.98       2.15       0.31
H       0.64      -1.36       0.45
O       3.99       1.19       0.42
O      -0.49       1.63       1.79
O      -0.51       1.66      -0.95
O       0.64      -0.40       0.39
C       3.98      -1.17      -1.44
C       4.00      -1.29       2.14
C       0.65       1.94       2.26
C       0.63       2.03      -1.37
