35

Zn       9.31       5.00       4.78
Zn       7.74       1.87       6.37
Zn      10.58       2.88       7.84
Zn      11.62       5.81       6.36
C       8.43       3.35       2.48
C       5.05       0.94       5.00
C      12.29       2.15       5.52
C      12.98       6.09       8.88
C       9.04      -0.84       7.07
C       7.68       6.45       6.92
C      12.17       7.78       3.95
C       8.63       3.56       9.94
C      10.78      -0.21       8.28
C       9.46       7.15       8.03
C      10.33       7.20       2.87
C       6.78       2.81       9.00
C      12.23       3.95       4.21
C      11.99       4.45       9.98
C       8.27       1.41       3.51
N       8.46       3.56       3.81
N       8.74       5.71       6.53
N       9.10       0.50       7.05
N      11.46       6.93       4.73
N       8.86       3.44       8.61
N      10.18       0.89       7.80
N       9.83       6.14       7.22
N       5.83       1.61       5.87
N      10.32       6.57       4.06
N       7.71       2.98       8.03
N      11.25       4.05       5.16
N      11.97       4.14       8.68
N       8.37       2.35       4.45
N       5.23       2.80       6.22
N      11.30       2.93       5.95
N      12.58       5.17       7.98
