17

O      11.11       1.07       5.11
O      10.93      -0.99       4.20
La      13.43      -0.38       4.56
C      13.43       2.60       4.44
C      11.85      -0.78       7.72
O      13.18      -1.08       2.25
C      10.45       0.07       4.70
O      12.80      -0.75       6.87
O      13.27      -2.95       4.91
C      13.32      -2.02       1.39
C      16.36       0.14       4.68
O      15.74       0.47       3.62
O      15.85      -0.21       5.78
O      15.27      -2.41       4.00
C      14.40      -3.23       4.41
O      13.86       2.04       5.49
O      13.18       2.03       3.33
