18

Al       0.21       6.74      16.55
Al      -3.12       6.80      16.54
H      -1.42       8.49      16.95
H       1.92       5.08      17.01
O       0.70       7.81      15.04
O       3.05       7.96      18.00
O      -2.53       5.45      17.78
O      -0.41       5.40      15.33
O      -0.28       5.62      18.06
O      -2.63       5.72      15.04
O       2.93       8.12      15.30
O       0.79       8.12      17.79
O      -1.45       7.60      16.57
O       1.89       5.95      16.59
C       1.82       8.34      14.73
C       1.91       8.42      18.32
C      -1.43       5.16      18.36
C      -1.52       5.18      14.75
