15

Cu      24.38       6.61       6.75
Cu      22.16       4.39       6.58
Cu      22.00       7.08       4.80
C      24.97       5.16       9.21
C      23.52       3.50       9.04
C      23.70       9.33       3.98
C      25.51       8.78       5.13
C      19.93       3.71       4.81
C      19.64       5.67       3.83
N      23.38       4.29       7.96
N      24.29       5.32       8.07
N      24.51       7.95       5.50
N      23.39       8.29       4.78
N      20.70       5.78       4.65
N      20.87       4.56       5.27
