18

Al       0.74       9.08       8.99
Al       4.07       9.09       9.07
O       3.57      10.05       7.51
O       1.23      10.34      10.39
O       0.17       7.87      10.38
O       1.33      10.26       7.61
O       0.24       7.83       7.63
O       3.49      10.53      10.24
O       2.40       8.27       9.14
O      -2.00       7.69       7.93
O      -2.08       8.06      10.65
O      -0.92       9.91       9.01
H       2.38       7.43       9.62
H      -0.91      10.79       9.42
C       2.35      10.80      10.76
C       2.46      10.44       7.05
C      -0.92       7.38       7.34
C      -0.92       7.69      11.03
