20

Zn       6.74       8.90      24.31
Zn       6.79       6.05      24.17
N       6.79      10.94      24.09
N       6.63       4.01      24.28
O       6.83       8.68      26.41
O       6.56       6.45      26.30
O       8.76       6.27      24.45
O       8.73       8.52      24.27
O       7.08       6.39      22.13
O       6.49       8.56      22.21
O       4.74       8.58      24.47
O       4.81       6.39      23.91
C       6.73       7.53      26.98
C       9.34       7.40      24.36
C       6.71       7.47      21.57
C       4.19       7.47      24.19
C       6.23      11.64      23.07
C       6.47       3.30      25.42
C       6.70       3.35      23.10
C       7.36      11.63      25.11
