14

O      -7.59      12.71       6.48
Zn      -9.78      14.05       6.88
Zn      -7.91      13.03       8.54
C      -7.21      15.51       7.78
C     -10.47      14.56       9.43
C      -9.71      11.14       8.21
C      -8.20      12.63       5.37
O      -8.32      15.47       7.17
O      -6.72      14.56       8.50
O     -10.94      14.80       8.27
O      -9.36      14.00       9.69
O     -10.26      12.16       7.68
O      -8.51      11.18       8.69
O      -9.31      13.27       5.15
