62

Zr       0.00       0.00       2.62
O       3.56      -0.00       2.20
Zr       2.78      -0.00       0.00
Zr       0.00      -2.78       0.00
Zr      -2.78       0.00      -0.00
Zr      -0.00       2.78      -0.00
O      -1.87      -0.00       3.72
O      -0.00       1.87       3.72
O       1.87       0.00       3.72
O       0.00      -1.87       3.72
O       3.56       0.00      -2.20
Zr      -0.00      -0.00      -2.62
O      -1.87      -0.00      -3.72
O       1.87       0.00      -3.72
O       1.28       1.28       1.28
O       1.28      -1.28       1.28
O      -1.28      -1.28       1.28
O      -1.28       1.28       1.28
H       1.89       1.89       1.74
H       1.89      -1.89       1.74
H      -1.89      -1.89       1.74
H      -1.89       1.89       1.74
O       1.28      -1.28      -1.28
O       1.28       1.28      -1.28
O       3.90       1.59      -0.00
H       1.89      -1.89      -1.74
O       3.91      -1.59       0.00
H       1.89       1.89      -1.74
H       4.74       2.07      -0.00
H       4.74      -2.07      -0.00
O       0.00      -3.56      -2.20
O       1.59      -3.90       0.00
O      -1.59      -3.90      -0.00
H      -2.07      -4.74      -0.00
O      -3.90       1.59      -0.00
H      -4.74       2.07       0.00
O       1.59       3.90       0.00
H       2.07       4.74       0.00
O       0.00      -3.56       2.20
O      -1.59       3.90      -0.00
O      -0.00       1.87      -3.72
O       0.00      -1.87      -3.72
O      -3.56       0.00      -2.20
H      -1.89       1.89      -1.74
O      -1.28       1.28      -1.28
H      -1.89      -1.89      -1.74
C      -3.12      -0.00       3.38
C      -0.00       3.12       3.38
C       3.12      -0.00       3.38
C       0.00      -3.12       3.38
O      -1.28      -1.28      -1.28
C       3.12       0.00      -3.38
C      -3.12       0.00      -3.38
C      -0.00       3.12      -3.38
C       0.00      -3.12      -3.38
H       2.07      -4.74      -0.00
O      -0.00       3.56      -2.20
H      -4.74      -2.07       0.00
O      -3.56      -0.00       2.20
O      -3.90      -1.59       0.00
H      -2.07       4.74       0.00
O      -0.00       3.56       2.20
