36

Ba       5.84       8.03       8.46
Ba       8.97       7.91       4.93
H       5.09       4.80       8.70
H       9.71      11.14       4.69
H       6.62       4.83       8.52
H       8.18      11.11       4.87
H       8.13       5.94       7.36
H       6.67      10.01       6.03
H       8.79       7.07       8.26
H       6.01       8.88       5.13
H       7.43      11.03       7.73
H       7.37       4.91       5.66
H       7.96      10.73       9.23
H       6.84       5.21       4.16
H       5.60       6.17       5.77
H       3.00       9.77       7.63
H       4.41       5.61       6.65
H       4.19      10.33       6.75
C       8.90       7.55      10.58
C       5.91       8.39       2.82
S      10.78       4.69       2.65
S       4.02      11.25      10.74
O       5.90       5.22       9.08
O       8.90      10.73       4.31
O       8.20       6.93       7.45
O       6.60       9.02       5.95
O       7.67       7.83      10.50
O       7.13       8.11       2.89
O       7.68      10.33       8.38
O       7.12       5.62       5.02
O       3.46       7.26       9.59
O      11.35       8.68       3.81
O       4.81       6.45       6.30
O       3.79       9.49       7.10
O      10.00       5.65       3.41
O       4.81      10.29       9.99
