18

Al      -2.40       3.56       8.16
Al       0.97       3.50       8.16
H      -0.75       2.18       7.04
H      -4.09       4.68       9.55
O      -2.96       1.73       8.00
O      -5.17       3.71       6.36
O       0.44       5.37       8.16
O      -1.87       3.22       9.98
O      -1.82       5.38       8.31
O       0.40       3.29       9.97
C      -4.08       1.12       8.08
C      -4.06       3.97       5.77
C      -0.70       5.98       8.22
C      -0.72       3.08      10.55
O      -5.22       1.68       8.14
O      -2.92       3.95       6.35
O      -0.72       3.03       7.51
O      -4.08       4.06       8.80
