36

Zn       0.97      -5.81      13.04
C       6.51      -5.01      15.68
Zn       1.03      -8.66      14.68
Zn       3.64      -4.99      14.68
C      -1.00      -7.13      16.27
Zn       3.51      -7.62      16.56
N       0.07      -5.88      14.82
N       2.72      -6.54      12.42
N       1.54      -3.86      12.96
N       3.91      -8.55      14.84
N       2.46      -4.92      16.31
N      -0.01      -8.57      12.92
N       0.06      -7.08      15.45
N       5.27      -5.53      15.73
N       5.25      -6.53      16.66
N       2.35      -6.06      17.03
N      -0.13      -7.36      12.27
N       1.34      -9.63      16.48
N       3.85      -6.16      13.06
N       2.69      -3.52      13.64
N       2.90      -9.06      14.09
N       2.34      -9.12      17.27
C      -0.98      -5.17      15.25
C       6.49      -6.63      17.18
C       1.92      -5.76      18.27
C      -0.76      -7.58      11.11
C       0.74     -10.62      17.17
C       4.87      -6.20      12.19
C       2.74      -2.18      13.74
C       3.35     -10.17      13.47
C       2.34      -9.78      18.44
C       3.03      -6.82      11.14
C       0.90      -2.72      12.64
C       4.99      -9.35      14.70
C       2.12      -3.88      17.10
C      -0.58      -9.52      12.16
