24

Co       0.24       1.68      19.29
Co       3.22       5.50      20.96
C       1.23       3.37      21.05
C       0.41       2.33      21.82
C       1.74       0.23      21.24
C       0.60       2.31      16.44
C       2.40       1.24      17.46
C      -1.75       3.81      19.19
C      -2.57       4.85      18.43
C      -1.24      -0.88      19.00
C       3.59       4.87      23.80
C       5.38       5.94      22.79
N       1.15       1.74      17.54
N       4.14       5.44      22.70
O       1.29       3.15      19.79
O      -0.53       1.74      20.98
O       1.53       0.42      20.00
O       2.28      -0.82      21.71
O       1.85       4.29      21.66
O      -1.70       4.03      20.45
O      -3.52       5.44      19.26
O      -1.46      -1.06      20.24
O      -0.71       0.18      18.53
O      -1.13       2.89      18.58
