18

Al       3.50       4.40       5.16
Al       0.17       4.43       5.15
H       1.82       3.78       3.53
H       5.19       4.95       6.80
O       3.99       4.92       3.38
O       6.33       2.58       5.19
O       0.75       4.32       6.98
O       2.90       6.21       5.50
O       2.98       3.95       6.95
O       0.67       6.31       5.09
O       6.23       4.63       3.34
O       4.09       2.59       4.91
O       1.83       3.93       4.49
C       5.12       4.94       2.79
C       5.20       2.01       5.12
C       1.88       4.12       7.55
C       1.81       6.84       5.29
O       5.16       4.92       5.83
