10

Al       0.25      34.76      12.07
C       2.26      35.78      10.29
O       1.31      36.02      11.10
O       1.31      33.29      11.46
O       1.31      34.96      13.64
O      -0.81      34.96      10.49
O      -0.81      36.02      13.03
O      -0.81      33.30      12.68
C       2.26      32.71      12.07
C       2.26      35.78      13.84
