54

Zr      -9.07      17.76       1.44
Zr     -12.61      19.80      -1.44
Zr     -10.84      16.73      -1.44
Zr     -10.84      20.82       1.44
Zr      -9.07      19.80      -1.44
Zr     -12.61      17.76       1.44
H      -8.06      17.17      -1.14
H     -10.84      21.99      -1.14
H     -13.62      17.17      -1.14
H     -10.84      18.78       3.41
O      -6.93      18.16       0.96
O     -11.98      20.99      -3.22
O     -14.75      19.48      -0.90
O      -9.70      16.47       3.16
O      -9.49      15.04      -0.90
O      -9.42      20.91       3.16
O     -12.27      22.47       0.96
O     -12.19      16.68      -3.22
C      -6.35      18.83       0.03
C     -10.84      21.32      -3.70
C     -15.34      18.82       0.03
C     -10.84      16.13       3.63
C      -8.64      14.86       0.03
C      -8.55      20.10       3.63
O     -12.19      15.04      -0.90
O      -9.49      16.68      -3.22
O      -8.36      15.70       0.96
C     -13.05      17.50      -3.70
C     -13.05      14.86       0.03
O      -8.28      18.94       3.16
C      -8.64      17.50      -3.70
O     -13.33      18.65      -3.22
O     -13.40      21.81      -0.90
C     -13.13      22.64       0.04
O     -10.84      18.78       2.44
O     -12.83      17.63      -0.81
O     -10.84      21.08      -0.81
O      -8.85      17.63      -0.81
O     -10.84      18.78      -1.80
O      -9.37      19.62       0.60
O     -12.31      19.62       0.60
O     -10.84      17.08       0.60
O     -13.33      15.70       0.96
O     -13.40      18.94       3.16
O      -8.28      21.81      -0.90
O     -12.27      20.91       3.16
O      -9.42      22.47       0.96
C     -13.13      20.10       3.63
C      -8.55      22.64       0.03
O     -11.98      16.48       3.16
O      -8.36      18.65      -3.22
O      -6.93      19.48      -0.90
O      -9.70      20.99      -3.22
O     -14.75      18.16       0.96
