62

Tb       5.03       8.40       1.25
C       2.42       6.45       2.12
Tb       2.68       6.30      -1.25
C       7.57      12.39       1.03
C       6.07      12.37      -1.25
C       3.95       9.94       5.34
C       3.31      12.18       3.92
H       7.98      11.81       1.87
H       6.86      13.15       1.39
H       8.38      12.85       0.45
H       5.56      13.20      -0.75
H       5.37      11.80      -1.87
H       6.91      12.72      -1.87
H       4.49       8.99       5.34
H       2.86       9.78       5.37
H       4.28      10.58       6.17
H       3.43      12.75       3.00
H       3.63      12.78       4.78
H       2.26      11.85       4.03
C       0.51       5.87      -3.01
C      -0.58       5.61      -4.00
C       2.02       9.10      -0.55
C       5.29       8.26      -2.11
C       0.14       2.32      -1.03
C       1.64       2.34       1.25
C       3.76       4.76      -5.34
C       4.40       2.53      -3.92
H      -0.27       2.89      -1.87
H       0.85       1.56      -1.39
H      -0.67       1.85      -0.45
H       2.15       1.50       0.75
H       2.34       2.90       1.87
H       0.80       1.99       1.87
H       3.22       5.71      -5.34
H       4.85       4.93      -5.37
H       3.43       4.13      -6.17
H       4.28       1.95      -3.00
H       4.08       1.93      -4.78
H       5.44       2.85      -4.03
S       6.70      11.20      -0.02
S       4.38      10.73       3.77
O       1.65       6.27      -3.44
S       1.01       3.50       0.02
S       3.33       3.97      -3.77
O       6.06       8.43       3.44
O       7.41       9.06       1.77
O       6.34       6.42       1.28
O       4.61       5.96      -0.04
O       3.52       7.03       2.35
O       1.93       6.19       0.97
O       5.46      10.82       0.78
O       3.72       9.89       2.70
C       7.20       8.84       3.01
C       8.29       9.10       4.00
C       5.69       5.61       0.55
O       0.30       5.65      -1.77
O       1.37       8.29      -1.28
O       3.10       8.75       0.04
O       4.19       7.67      -2.34
O       5.78       8.51      -0.97
O       2.25       3.88      -0.78
O       3.99       4.81      -2.70
