20

Zn      13.13      14.90      19.10
Zn      11.77      17.71      20.80
C      10.93      19.93      22.38
C      11.83      15.56      22.94
N      12.95      16.68      18.29
N      12.13      16.04      21.72
N      11.51      13.84      18.34
N      12.64      17.82      19.05
N      12.86      15.03      21.06
C      12.63      18.85      18.20
H       9.73      16.34      21.04
H       8.84      17.55      20.59
O      14.77      13.83      18.98
O      11.80      19.51      21.53
O       9.75      17.13      20.46
C      10.47      14.49      17.79
C      12.95      14.01      21.92
C      13.08      17.09      17.02
C      11.46      12.49      18.42
C      15.09      13.48      17.76
