16

Zn       3.11       3.88       4.41
Si      -0.78       3.88       4.41
C       2.40       3.88       1.27
C       3.82       3.89       7.56
C       2.40       0.76       4.01
C       3.82       7.00       4.82
S       4.75       4.64       1.65
S       1.48       3.12       7.18
S       4.75       1.04       4.82
S       1.48       6.72       4.01
N       3.28       4.06       2.23
N       2.94       3.71       6.60
N       3.28       1.70       4.31
N       2.94       6.07       4.52
F       1.05       3.81       4.33
F       5.18       3.96       4.50
