20

Zn       5.95       9.60      14.02
Zn       8.18      10.70      15.33
H       3.74      10.05      13.01
H       3.51       8.82      13.89
H       9.57      11.13      17.36
H      10.59      10.61      16.27
C       6.04       9.61      17.09
C       8.06      10.79      12.35
C       6.00      12.51      14.77
C       8.03       7.72      14.71
O       5.27       9.65      16.06
O       7.28       9.87      17.07
O       7.08       9.99      12.38
O       8.74      11.15      13.38
O       5.47      11.61      14.03
O       7.05      12.36      15.47
O       6.79       7.80      14.46
O       8.79       8.74      14.93
O       4.15       9.18      13.21
O       9.81      11.23      16.42
