23

Zn      17.66       4.98      32.01
Zn      14.45       4.84      31.82
Zn      16.14       2.13      31.83
Zn      15.97       3.93      34.51
C      16.04       6.97      30.55
C      13.65       2.46      30.28
C      18.76       2.65      30.55
C      16.06       0.97      34.55
C      18.47       5.49      34.80
C      13.36       5.30      34.53
O      17.20       6.55      30.92
O      13.43       3.66      30.64
O      17.81       1.83      30.81
O      14.91       6.45      30.81
O      18.86       3.87      30.92
O      16.06       3.96      32.54
O      16.13       0.80      33.28
O      17.48       4.88      35.33
O      15.98       2.08      35.17
O      18.69       5.62      33.55
O      13.25       5.42      33.27
O      14.32       4.76      35.18
O      14.63       1.73      30.64
