19

C      -6.31       5.97       9.52
Fe      -5.35       4.28       7.42
N      -6.86       1.63       7.62
C      -4.39       2.60       5.32
N      -3.84       6.93       7.22
N      -6.49       4.71       9.00
N      -4.22       3.85       5.84
N      -3.97       3.56       8.66
N      -6.73       5.01       6.19
C      -3.33       4.67       5.22
C      -7.37       3.89       9.62
C      -2.83       4.25       8.93
C      -7.87       4.32       5.91
C      -6.52       6.16       5.49
C      -4.18       2.41       9.35
C      -5.34       6.73       8.79
C      -5.36       1.83       6.05
N      -5.97       2.48       7.08
N      -4.73       6.08       7.76
