10

Al       0.03      -5.83      16.83
C       2.09      -7.90      16.84
C       2.08      -4.84      15.03
C       2.09      -4.76      18.60
O       1.13      -4.61      17.77
O       1.10      -7.34      17.43
O       1.13      -5.64      15.29
O      -1.04      -5.55      18.42
O      -1.05      -4.60      15.80
O      -1.07      -7.27      16.29
