23

Zn      21.57      13.80       3.36
Zn      24.55      14.92       3.36
Zn      24.03      11.78       3.36
Zn      23.38      13.50       6.01
C      24.62      10.82       6.10
O      24.30      11.90       6.71
O      24.49      10.60       4.85
O      24.30      15.10       6.71
O      25.34      15.91       4.85
O      21.54      13.50       6.71
O      20.31      14.00       4.85
O      21.41      15.44       2.27
O      23.58      16.13       2.14
O      26.04      14.24       2.27
O      25.56      12.02       2.15
O      22.69      10.83       2.27
O      21.01      12.36       2.15
C      25.08      15.91       6.11
O      23.38      13.50       4.04
C      20.44      13.77       6.10
C      22.35      16.18       1.81
C      26.22      13.06       1.81
C      21.58      11.27       1.81
