20

Zn       3.09       5.39      13.97
Zn       5.94       5.62      13.96
N      -1.80       5.79      13.77
N       1.01       5.50      13.86
O       3.74       3.47      13.83
O       3.28       5.17      16.01
O       5.47       5.78      15.98
O       5.96       3.61      14.31
O       3.30       5.49      11.90
O       5.55       5.16      11.92
O       3.36       7.38      14.22
O       5.55       7.56      13.65
C       4.86       2.98      14.18
C       4.41       5.21      11.38
C       4.44       8.03      14.04
C       4.40       5.46      16.55
C      -1.10       5.14      12.84
C      -1.08       6.37      14.76
C       0.34       6.20      14.77
C       0.26       4.98      12.87
