20

Zn       5.67       5.63      13.28
Zn       5.65       8.42      13.31
C       5.62       7.02      15.91
C       2.99       7.03      13.29
C       5.64       7.05      10.63
C       8.27       6.98      13.27
C       6.44       2.89      12.47
C       4.83      11.15      14.11
C       6.47      11.16      12.50
C       4.82       2.88      14.09
N       5.63       3.57      13.27
N       5.65      10.47      13.31
O       5.61       5.89      15.32
O       5.62       8.16      15.34
O       3.59       8.15      13.31
O       3.59       5.88      13.26
O       5.62       8.20      11.24
O       5.66       5.93      11.23
O       7.70       5.84      13.27
O       7.68       8.11      13.26
