15

C      20.69      15.56      26.01
C      14.63      18.90      22.64
C      15.38      16.92      21.93
C      18.64      20.23      28.05
C      16.66      20.94      27.32
Cu      17.69      16.64      23.68
Cu      18.96      17.90      26.30
Cu      16.37      19.21      24.98
N      19.68      16.35      25.62
N      19.24      15.91      24.38
N      16.14      17.31      22.96
N      15.67      18.53      23.42
N      17.05      19.91      26.55
N      18.26      19.46      27.02
C      20.01      14.88      24.00
