18

Al       0.90      11.51       9.39
Al       4.24      11.53       9.37
H       2.59       9.78       9.31
H      -0.75      13.26       9.47
C       2.55      13.45      10.85
C       2.58      12.71       7.28
C      -0.76       9.60       7.90
C      -0.78      10.31      11.49
O       3.73      12.42       7.75
O       1.42      12.94      10.57
O       0.36      10.53      10.95
O       1.46      12.52       7.85
O       0.38      10.04       8.28
O       3.68      13.06      10.40
O       2.58      10.72       9.54
O      -1.89      10.05       8.28
O      -1.91      10.60      10.99
O      -0.76      12.32       9.24
