18

Mg       1.73      15.37       7.98
Mg       4.01      13.59       7.60
Mg      -0.56      14.16       9.33
O      -1.43      13.13       6.23
O       0.16      14.14       7.43
O       2.62      14.46       6.40
C      -2.51      11.98      10.18
C      -0.24      13.58       6.33
C       2.05      13.06       9.97
O       0.86      13.20      10.41
O       2.44      13.73       8.93
O      -1.95      12.68       9.18
C       2.07      13.95       5.29
O       3.15      16.78       8.26
O      -2.13      15.24       8.54
O       0.34      15.98       9.33
C      -0.22      17.19       9.44
C       4.33      16.47       8.60
