20

Zn       3.70       5.86       7.98
Zn       6.42       5.88       7.92
H       1.15       6.79       8.08
H      -0.72       5.92       8.86
C       5.02       8.45       7.56
C       5.18       6.16      10.55
C       0.98       5.05       7.20
C      -0.49       5.16       7.07
C       4.84       3.27       8.10
C       5.22       5.52       5.33
N       1.68       5.96       7.77
N      -1.22       5.66       8.00
O       3.88       7.90       7.70
O       6.15       7.86       7.57
O       4.04       6.06       9.99
O       6.31       6.21       9.97
O       3.67       3.80       8.12
O       5.93       3.93       8.15
O       4.11       5.59       5.96
O       6.39       5.56       5.85
