20

Zn       8.82       8.47       9.08
Zn       6.03       8.31       8.86
C       7.26       8.80      11.55
C       7.47       8.28       6.36
C      11.61       9.35       9.69
C       3.29       7.73       7.85
C      11.48       7.49       8.30
C       3.31       8.99       9.81
C       7.48      10.95       8.44
C       7.54       5.79       9.00
N      10.88       8.43       9.03
N       3.97       8.35       8.83
O       8.43       8.62      11.09
O       6.32       7.98       6.83
O       6.19       8.79      10.86
O       8.55       8.40       7.01
O       8.58      10.50       8.89
O       6.37       6.29       9.11
O       6.39      10.30       8.36
O       8.63       6.43       9.10
