15

Fe       2.86       2.36      28.16
C       3.36       5.38      28.25
C       2.61       3.18      25.33
C      -0.20       2.60      28.16
N       2.61       2.50      30.62
N       3.14       4.24      28.17
C       2.30      -0.65      28.37
N       0.97       2.59      28.08
C       5.91       2.15      28.43
N       3.08       2.24      26.19
N       2.56       0.49      28.30
C       3.77       1.19      25.66
N       4.74       2.14      28.38
C       2.10       3.63      31.13
C       2.90       1.48      31.44
