18

Al       5.82      23.78      12.63
Al       9.11      23.90      12.61
O       5.22      25.14      13.87
O       6.29      22.64      14.13
O       6.43      22.43      11.41
H       7.39      25.46      13.27
H       4.07      22.11      12.95
O       5.35      24.88      11.16
O       7.45      24.68      12.70
O       4.14      23.01      12.62
O       2.98      24.99      14.17
O       3.13      25.28      11.43
O       8.52      22.46      13.78
O       8.61      22.92      11.07
C       4.14      25.45      14.46
C       4.26      25.48      10.87
C       7.54      22.29      10.80
C       7.45      22.17      14.39
