20

Zn       5.84       9.68       8.47
Zn       5.87       6.87       8.49
C       5.63       8.30       5.89
C       8.46       8.43       8.44
C       5.15       4.15       9.20
C       6.87       4.14       7.62
C       5.83       8.24      11.07
C       6.83      12.37       7.98
C       4.70      12.40       8.94
C       3.29       8.22       8.61
N       6.03       4.83       8.44
N       5.77      11.72       8.45
O       6.12       9.35       6.42
O       5.40       7.20       6.51
O       7.87       9.51       8.74
O       7.87       7.35       8.08
O       5.55       9.34      10.49
O       6.28       7.19      10.49
O       3.88       9.26       8.18
O       3.87       7.13       8.95
