23

Zn       3.96       7.88       8.85
Zn       5.21       5.00       9.43
Zn       3.33       6.37      11.60
Zn       2.08       5.31       8.86
O       3.64       6.14       9.69
O       5.75       7.97       8.06
O       5.97       4.45      11.14
O       3.38       8.27      12.10
O       6.59       5.91       8.39
O       3.91       9.32      10.19
O       4.64       5.39      12.66
O       1.53       5.75      12.10
C       6.67       7.10       7.94
C       5.65       4.67      12.36
O       2.64       8.25       7.46
C       3.64       9.31      11.43
C       1.63       7.61       7.01
O       4.75       3.40       8.39
C       3.64       2.97       7.94
C       0.62       5.18      11.43
O       1.31       6.46       7.48
O       0.69       4.92      10.19
O       2.53       3.58       8.06
