18

Al      -2.97       4.57       8.79
Al       0.33       4.58       8.76
H      -1.27       6.19       9.34
H      -4.65       3.05       7.89
O      -3.46       6.39       8.50
O       0.81       4.23      10.60
C      -4.58       6.99       8.66
C      -4.69       4.42      11.19
C      -1.38       2.16       8.81
C      -1.30       4.78       6.36
O      -5.69       6.40       8.87
O      -0.26       2.76       8.64
O      -1.32       5.22       9.34
O      -4.63       3.97       8.19
O      -2.37       4.44       6.96
O      -2.48       2.75       9.08
O      -0.15       4.92       6.91
O      -3.59       4.71      10.61
