20

Co       9.77       3.26       3.87
C       9.72       1.52       1.10
C      11.79       2.67       5.91
Co      10.00       4.85       5.47
C       7.99       2.81       6.06
C      10.04       7.62       7.20
N       9.93       1.68       2.42
N       9.84       6.31       7.05
N      10.57       0.56       2.83
N       9.20       5.89       8.16
O      11.15       2.14       4.93
O       8.62       3.80       6.58
O      11.49       3.81       6.39
O       8.28       2.33       4.91
O      11.34       5.86       4.40
O       8.42       4.32       2.87
O      11.28       4.20       2.88
O       8.48       5.85       4.53
C      11.73       5.32       3.31
C       8.04       5.42       3.41
