18

Al       0.66      15.42      10.99
Al       4.00      15.41      11.05
H       2.34      17.15      10.67
H      -0.99      13.78      11.69
C       2.33      13.43       9.63
C       2.31      14.26      13.16
C      -0.99      17.39      12.43
C      -1.04      16.56       8.89
O       3.46      14.53      12.69
O       1.18      13.91       9.91
O       0.11      16.35       9.40
O       1.20      14.50      12.59
O       0.14      16.91      12.08
O       3.44      13.87      10.04
O       2.33      16.19      10.84
O      -2.14      16.97      12.06
O      -2.16      16.24       9.41
O      -1.01      14.63      11.22
