23

Zn      19.99       8.29      23.71
Zn      23.23       8.38      23.86
Zn      21.51       7.29      26.35
Zn      21.74       5.57      23.71
O      21.62       7.40      24.40
C      21.63      10.39      22.41
O      20.49       9.88      22.68
O      19.89       8.14      27.03
C      21.61       4.36      26.41
O      18.78       8.83      25.15
O      23.03       8.24      27.19
O      21.55       5.46      27.06
O      24.25       9.00      25.42
O      21.68       4.23      25.14
O      18.99       7.08      22.52
O      24.43       7.25      22.79
O      22.77       9.95      22.78
O      20.21       5.16      22.52
O      23.36       5.23      22.67
C      24.32       6.03      22.41
C      24.04       8.87      26.67
C      18.91       8.70      26.42
C      19.20       5.88      22.15
