36

Ni      -1.21       0.40       7.60
Ni       1.04       0.68       9.48
Ni      -3.46      -1.09       8.79
H      -1.03      -0.55       5.38
H       1.23       3.09       9.77
H      -3.28      -2.54      10.72
H       0.12       2.01       4.82
H       2.37       2.29      12.26
H      -2.13      -4.30       8.79
H      -0.32       0.79       3.58
H       1.93       3.97      11.82
H      -2.57      -4.76      10.46
H      -1.60       1.61       4.57
H       0.65       2.72      12.04
H      -3.85      -4.32       9.27
C      -1.60       0.35      10.65
C       0.65      -1.93       7.91
C      -3.85       1.58       7.31
C      -3.90      -0.31      11.63
C      -1.65      -2.45       6.85
C       0.60       2.76       7.39
C      -0.58       1.21       4.57
C       1.67       2.91      11.69
C      -2.83      -4.11       9.61
O      -2.05       0.18       9.46
O       0.21      -0.81       8.37
O      -4.30       0.63       8.05
O      -0.41       0.70      10.90
O      -4.91      -2.32       8.09
O      -2.66       1.62       6.88
O      -4.49      -0.64      10.47
O      -2.24      -1.28       7.15
O       0.02       1.92       8.25
O      -0.42       0.19       5.58
O       1.83       2.54      10.30
O      -2.67      -2.73       9.98
