20

Zn       6.16       5.57      13.19
Zn       6.16       8.37      13.21
C       6.09       6.82      15.81
C       3.57       7.02      13.17
C       6.14       6.93      10.60
C       8.76       7.13      13.26
C       5.24       2.87      13.93
C       7.03       2.83      12.42
C       7.00      11.06      12.45
C       5.22      11.10      13.97
N       6.15       3.51      13.17
N       6.11      10.42      13.22
O       6.23       5.69      15.25
O       5.94       7.94      15.21
O       4.14       8.14      12.98
O       4.12       5.89      13.35
O       6.43       8.01      11.20
O       5.99       5.79      11.14
O       8.18       6.00      13.15
O       8.20       8.26      13.40
