13

C      10.49      13.59      12.94
C       8.97      18.85      14.42
C      13.46      16.53      12.95
Zn      10.38      16.59      13.06
C       8.62      14.27      13.82
C      12.76      17.56      14.70
C       8.50      17.73      11.03
C       9.27      17.27      15.89
C      10.56      18.12      10.46
N       9.81      14.70      13.26
N      12.33      16.90      13.58
N       9.81      17.55      11.42
N       9.45      17.59      14.56
