23

Zn      -0.03       6.39       7.62
Zn       1.53       7.95       5.29
Zn      -1.67       7.99       5.32
Zn      -0.09       9.58       7.58
C      -0.07       8.02      10.03
C      -2.56       5.44       6.45
C       2.46      10.49       6.45
C       2.50       5.43       6.45
C      -2.62      10.51       6.45
C      -0.10       7.98       2.87
O      -0.40       9.10       9.46
O      -1.19       8.31       3.45
O      -1.72       5.39       7.41
O       2.52       9.65       5.49
O      -0.06       7.97       6.45
O       1.45       5.18       7.13
O       2.75       6.48       5.77
O      -1.52      10.82       7.03
O      -2.91       9.42       5.87
O      -2.61       6.28       5.50
O       1.62      10.54       7.40
O       0.27       6.92       9.48
O       1.00       7.65       3.42
