20

Zn       3.52       5.28       6.46
Zn       0.81       5.34       5.84
H       5.96       5.13       5.45
H       7.89       4.60       5.68
C       1.97       2.74       5.80
C       2.07       4.74       8.73
C       6.36       5.93       7.19
C       7.80       6.10       6.92
C       2.04       7.86       6.77
C       2.61       5.77       3.61
N       5.55       5.40       6.35
N       8.44       5.35       6.10
O       3.08       3.36       5.91
O       0.83       3.30       5.61
O       3.31       4.76       8.44
O       1.13       4.94       7.90
O       3.13       7.23       6.99
O       0.96       7.33       6.33
O       3.55       5.88       4.46
O       1.37       5.61       3.89
