23

Zn       7.44       8.90      15.58
Zn       7.27      10.67      18.22
Zn       8.88      11.81      15.64
Zn       5.79      11.71      15.54
O       7.35      10.75      16.25
O       7.45       7.57      17.00
O       8.94      11.45      18.97
O      10.14      10.67      14.71
O       7.24       8.84      18.89
O       9.02       8.69      14.45
O       9.54      12.81      17.27
O       8.48      13.40      14.56
C       7.34       7.73      18.27
O       5.16      10.60      13.97
O       5.78       8.50      14.54
C      10.01       9.48      14.27
C       5.04       9.32      13.92
O       5.71      11.66      18.83
O       6.19      13.32      14.50
O       4.51      12.11      16.93
C       9.67      12.35      18.46
C       4.68      12.08      18.20
C       7.32      13.84      14.21
