18

Al       0.91       5.56       8.87
Al       4.24       5.55       8.88
C      -0.71       3.62      10.35
O       3.64       7.09       7.89
O       1.52       6.72      10.31
O       0.43       4.16      10.13
O       1.40       6.90       7.58
O       0.31       4.47       7.41
O       3.74       6.37      10.54
O       2.57       4.74       8.74
O      -1.93       4.75       7.23
O      -1.83       3.98       9.86
O      -0.76       6.35       9.06
H       2.57       3.82       9.04
H      -0.78       7.25       9.43
C       2.64       6.89      10.88
C       2.54       7.43       7.37
C      -0.81       4.30       6.83
