10

Al       4.72      11.78       6.84
O       5.84      10.84       8.07
O       5.84      11.20       5.39
O       5.83      13.35       7.06
O       3.61      10.24       7.10
O       3.60      12.76       8.02
O       3.61      12.33       5.38
C       6.81      10.04       7.86
C       6.81      11.78       4.81
C       6.81      13.54       7.85
