23

Zn       0.18       1.93      11.93
Zn      -1.51      -0.83      11.93
Zn       1.69      -0.82      11.95
Zn       0.07       0.08       9.30
C       0.07      -2.89      13.31
C       0.22       3.02       9.19
O       0.08       0.09      11.27
O      -1.64      -0.58       8.57
O       1.75       2.34      13.02
O      -2.66       0.34      13.02
O       2.83      -1.39      10.47
O      -1.07      -2.40      13.02
O       0.30       1.89       8.59
O       1.21      -2.41      13.01
O       0.12       3.21      10.45
O      -1.38       2.22      13.11
O       1.50      -1.10       8.64
O      -2.53      -1.56      10.42
O       2.78       0.31      13.12
C      -2.52      -1.29       9.18
C       2.67       1.55      13.41
C      -2.41       1.54      13.39
C       2.56      -1.49       9.23
