66

Hf       0.35      18.40       1.45
Hf       0.31      22.35      -1.27
Hf      -1.33      21.45       1.67
Hf       2.07      19.34      -1.45
Hf      -1.52      19.34      -1.34
Hf       2.29      21.37       1.43
H       0.21      17.18      -1.05
H      -2.44      21.93      -1.17
H       3.09      21.93      -1.27
H       0.63      20.34       3.52
H      -3.98      18.79      -0.19
H      -1.15      22.24       4.22
H       2.24      22.53       3.89
H      -1.51      18.02      -3.66
H       1.88      17.07      -2.96
H       4.72      19.69      -2.12
H       4.45      20.40      -0.14
H      -2.11      20.34      -3.73
H      -1.15      24.21      -2.70
H       2.14      17.00       3.12
H       3.17      20.03       3.62
H       0.43      17.92      -3.13
H      -0.21      23.40      -3.72
H      -3.89      22.11       1.28
H      -3.63      20.30       0.31
H       4.76      20.58       1.47
H       0.68      22.74       3.34
H       0.91      17.43       4.04
C      -1.95      16.48       0.32
C       2.57      16.47       0.08
O       1.54      17.74       3.36
O      -0.95      16.64       1.09
O      -1.03      18.16       3.29
C      -1.79      19.02       3.84
O      -1.96      20.21       3.44
O       1.75      16.68       1.03
C      -1.75      24.38       0.31
O      -1.11      19.59       0.78
O       0.28      18.09      -0.72
O       0.65      20.28       2.56
O       1.91      19.49       0.60
C       2.54      24.25       0.00
O      -3.64      19.65      -0.50
O       0.27      20.36      -1.78
O      -1.65      21.56      -0.74
O       0.42      22.07       0.72
O       2.32      21.49      -0.88
O      -3.38      21.30       1.42
O      -1.90      23.58       1.27
O      -1.03      24.15      -0.71
O       4.12      19.54      -1.38
O       1.66      24.08      -0.90
O      -0.76      22.53       3.38
O       3.46      20.69       2.98
O       1.71      22.78       3.11
O       4.42      21.04       0.68
O      -0.90      23.32      -3.03
O       1.54      17.98      -3.10
O       1.36      22.41      -3.33
O       2.52      20.47      -3.46
O      -0.92      17.96      -2.90
O      -2.55      20.11      -2.90
O       2.95      23.43       0.87
C       1.99      21.50      -3.96
O       2.86      17.24      -0.88
O      -2.41      17.34      -0.48
