11

N      13.72       4.51       4.47
Cd      11.73       5.42       4.89
C      14.28       3.98       3.33
C      11.36       5.75       7.70
C      14.58       4.26       5.46
O      10.59       6.14       6.73
N      10.34       3.64       4.52
C       9.20       3.69       3.76
C      11.44       7.90       3.72
C      10.27       2.50       5.24
O      10.76       6.87       3.39
