20

Zn       6.77       5.01       7.86
Zn       8.91       6.84       7.80
H      10.90       8.17       8.65
H       4.78       3.71       8.77
H       4.32       4.39       7.41
H      11.36       7.42       7.32
C       8.91       4.45       5.95
C       6.76       7.29       5.87
C       6.76       7.40       9.68
C       8.93       4.56       9.76
O       9.68       5.18       6.68
O       6.00       6.59       6.65
O       6.26       6.26       9.41
O       9.41       5.70       9.43
O       7.67       4.30       6.16
O       8.01       7.44       6.06
O       7.73       7.95       9.06
O       7.95       3.98       9.18
O       5.07       3.89       7.86
O      10.61       7.94       7.74
