29

Pr       4.63       8.62       0.20
O       3.52       9.48      -1.95
Pr      -0.25       8.25       0.13
O       1.58       8.42      -1.57
O       3.71       6.72      -1.14
H       3.73       5.73      -1.15
O       5.55       6.59       1.49
H       2.79       7.02      -1.36
O       7.77       6.38       1.19
C       6.56       9.71       2.52
O       1.05       6.06       0.24
O       6.42       7.81      -1.23
H       1.94       6.17       0.63
H       0.98       5.21      -0.24
O       8.32       6.96      -2.02
C       2.05       7.87       2.60
O       5.30       9.64       2.41
O       7.37       9.14       1.72
O       5.96      10.53      -0.48
C       7.01      10.76      -1.15
O       8.08      10.08      -1.17
C       1.96      10.84       1.01
C       2.31       9.25      -2.22
C       6.72       6.32       1.90
O       2.84       7.62       1.63
O       0.81       8.07       2.46
O       3.07      10.37       0.66
C       7.12       7.35      -2.19
O       0.81      10.39       0.70
