24

Al      10.10       6.11      15.36
Al      11.71       8.82      14.81
Al      13.25       6.24      14.77
O      11.13       5.18      16.78
O      12.77       9.07      13.26
O      13.95       7.13      13.24
O      12.88       4.88      13.57
O      11.71       7.06      14.97
O       9.69       7.46      16.71
O      10.75       9.42      16.27
O      13.24       9.27      15.85
O      14.37       7.32      15.84
O      13.33       5.05      16.20
O      10.64       4.81      13.93
O       9.27       7.13      13.89
O      10.28       9.14      13.65
H       8.36       4.57      15.08
O       8.63       5.23      15.73
C      10.08       8.61      17.03
C      14.12       8.48      16.31
C      12.34       4.93      17.02
C       9.49       8.20      13.26
C      13.48       8.18      12.68
C      11.67       4.59      13.23
