23

Zn       4.92      13.15       7.87
O       4.92      14.75       9.03
Zn       3.33      14.75      10.19
O       7.65      13.17       9.83
Zn       6.52      14.75      10.17
O       3.35      17.48       8.22
Zn       4.93      16.35       7.88
O       7.65      16.33       9.84
O       6.50      17.48       8.22
O       2.20      13.17       9.84
O       3.34      12.03       8.22
O       6.50      12.02       8.22
O       2.20      16.33       9.84
C       4.93      14.73      12.65
C       4.89      14.75       5.40
C       7.47      12.20       9.03
C       2.38      17.30       9.03
C       7.47      17.30       9.03
C       2.37      12.21       9.03
O       3.79      14.75      12.09
O       4.91      15.89       5.98
O       6.08      14.74      12.08
O       4.91      13.60       5.97
