10

Al       0.00      12.28      14.19
O       1.05      11.33      15.48
O       1.05      11.64      12.72
O       1.05      13.88      14.36
O      -1.05      10.69      14.36
O      -1.05      13.23      15.48
O      -1.05      12.93      12.72
C       1.98      12.28      12.13
C       1.98      14.07      15.22
C       1.98      10.50      15.22
