18

Zn      12.56       5.26       6.66
O      14.36       5.22       7.45
C      10.94       3.05       7.92
N      13.95       0.04       7.00
Zn      13.43       1.99       6.66
C      15.08       4.23       7.80
O      11.70       2.06       7.70
O      11.20       4.27       7.67
O      12.63       2.10       4.81
C      13.73       2.12       4.12
C      15.20      -0.38       6.74
C      12.72       8.22       7.04
C      13.02      -0.85       7.40
C      10.57       7.36       7.12
C      11.81       5.16       4.10
N      11.90       7.15       7.07
O      12.94       5.26       4.72
O      14.78       3.00       7.68
