14

Zn       5.18       1.26      15.14
Zn       2.47       1.23      15.14
O       4.44      -0.64      15.14
O       2.17      -0.72      15.15
O       3.22       1.26      17.04
O       5.48       1.25      17.10
O       2.18       3.19      15.14
O       4.46       3.17      15.14
O       5.47       1.24      13.18
O       3.20       1.25      13.24
C       3.34      -1.28      15.15
C       4.33       1.24      17.66
C       3.33       3.77      15.14
C       4.31       1.23      12.62
