23

Zn      -9.10       1.85      12.04
O      -8.01      -2.35      13.28
Zn      -7.52      -0.93      12.02
O      -9.26       1.83       8.70
Zn      -9.15       0.02       9.42
O      -9.04       3.14      10.56
O     -10.68      -0.98       8.69
Zn     -10.73      -0.95      12.01
C     -11.71      -1.44       9.27
C      -6.62      -1.50       9.27
C      -6.53       1.49      13.41
C     -11.65       1.46      13.47
C      -9.12      -2.95      13.44
C      -9.18       2.96       9.30
O      -9.13       0.00      11.38
O      -7.56      -0.87       8.69
O      -7.57       2.22      13.23
O     -10.74       2.25      13.05
O     -11.72       0.21      13.25
O      -6.33       0.34      12.92
O      -6.48      -1.69      10.52
O     -11.93      -1.45      10.53
O     -10.24      -2.62      12.92
