23

Zn       7.07       6.57      14.58
N       7.88       8.23      13.64
C       2.96       9.20      16.63
C       2.15       9.65      17.67
N       8.75       5.98      15.64
H       2.66       9.32      15.59
C       2.54       9.44      19.00
H       1.21      10.16      17.46
C       3.75       8.80      19.28
O       6.11       7.44      16.12
C       4.56       8.36      18.24
H       1.90       9.79      19.81
C       8.47       8.21      12.43
O       4.61       8.14      14.59
H       4.05       8.63      20.32
O       6.34       5.08      13.69
H       5.51       7.85      18.44
C       7.77       9.42      14.27
C       9.78       5.37      15.04
C       8.82       6.21      16.96
H       5.60       5.37      13.14
C       5.00       8.02      15.78
C       4.17       8.55      16.91
