10

Al       0.00      14.55      16.80
O       1.05      13.59      18.08
O       1.05      13.92      15.33
O       1.05      16.14      16.99
O      -1.05      12.96      16.99
O      -1.05      15.51      18.08
O      -1.05      15.18      15.33
C       1.99      14.55      14.75
C       1.99      16.32      17.82
C       1.99      12.78      17.82
