23

Zn       3.84      13.79      26.88
Zn       6.11      16.06      26.88
Zn       3.84      16.06      29.14
Zn       6.11      13.79      29.14
C       4.97      14.92      31.63
O       4.97      14.92      28.00
O       1.93      15.73      28.82
O       8.02      14.12      28.82
O       5.78      11.88      28.82
O       4.17      17.96      28.82
O       1.93      14.11      27.21
O       8.02      15.73      27.21
O       4.17      11.88      27.21
O       5.78      17.97      27.21
O       4.17      14.12      24.97
O       5.78      15.73      24.97
O       5.78      14.12      31.05
O       4.17      15.73      31.05
C       4.97      14.92      24.39
C       1.35      14.92      28.01
C       8.60      14.92      28.01
C       4.97      11.30      28.01
C       4.98      18.55      28.01
