23

Zn       0.01      -7.72      20.23
Zn       0.05     -10.91      20.23
Zn       1.63      -9.32      22.51
Zn      -1.57      -9.31      22.51
O       0.03      -9.31      21.37
O      -1.11      -9.38      24.42
O       1.17      -9.25      24.42
O      -0.03      -8.18      18.31
O       0.09     -10.45      18.31
O       2.75      -7.75      22.14
O      -2.69     -10.88      22.14
O       2.71     -10.93      22.22
O      -2.65      -7.70      22.22
O      -1.54     -12.02      20.53
O       1.61      -6.61      20.52
O      -1.57      -6.60      20.54
O       1.63     -12.03      20.53
C       0.03      -9.32      25.00
C       0.03      -9.32      17.74
C       2.59      -6.78      21.32
C      -2.53     -11.85      21.32
C       2.57     -11.89      21.39
C      -2.51      -6.74      21.39
