19

Cu       3.12      12.54      12.54
H       2.91      16.96      13.44
H       3.33      13.44      16.96
H       2.64      16.55      15.11
H       3.60      15.11      16.55
H       4.30      15.19      11.16
H       1.94      11.16      15.19
C       3.16      14.96      13.91
C       3.08      13.91      14.96
C       4.54      11.58      10.20
C       1.70      10.20      11.58
N       3.53      14.45      12.75
N       2.71      12.75      14.45
N       2.85      16.23      14.17
N       3.39      14.17      16.23
O       3.49      15.38      11.70
O       2.75      11.70      15.38
O       3.72      12.47      10.67
O       2.52      10.67      12.47
