18

Mg      -1.04      13.49       6.58
Mg      -3.32      13.48       8.40
Mg       1.23      11.91       7.48
C      -1.37      15.85       8.47
C       3.18      10.66       9.49
C       0.90      12.37       4.49
C       0.92      14.74       8.64
C      -1.35      11.06       8.45
C      -3.63      13.07       5.36
O       2.10      14.74       9.12
O      -0.17      10.65       8.21
O      -2.45      13.48       5.13
O       0.51      13.75       7.91
O      -1.77      12.19       7.96
O      -4.04      12.93       6.58
O      -1.95      14.83       7.80
O       2.61      11.74       8.95
O       0.33      12.30       5.70
