23

Zn       6.11      13.79       6.99
Zn       3.84      16.06       6.99
Zn       3.84      13.79       9.25
Zn       6.11      16.06       9.25
C       4.97      14.92      11.74
O       4.97      14.92       8.12
O       4.17      11.88       8.93
O       5.78      17.96       8.93
O       8.02      15.73       8.93
O       1.93      14.12       8.93
O       5.78      11.88       7.32
O       4.17      17.97       7.32
O       8.02      14.11       7.32
O       1.93      15.73       7.32
O       5.78      14.12       5.08
O       4.17      15.73       5.08
O       4.17      14.12      11.16
O       5.78      15.73      11.16
C       4.97      14.92       4.50
C       4.98      11.30       8.12
C       4.97      18.55       8.12
C       8.60      14.92       8.12
C       1.35      14.92       8.12
