23

Zn      40.01      23.18       2.41
Zn      41.59      22.29      -0.30
Zn      39.93      25.03      -0.22
Zn      38.40      22.30      -0.20
O      40.02      23.19       0.45
O      42.66      21.54       1.17
O      41.62      22.26       3.07
O      40.16      26.29       1.25
O      39.97      25.02       3.13
O      37.15      21.99       1.28
O      38.44      22.22       3.14
O      41.34      25.31      -1.56
O      42.72      23.50      -1.37
O      38.83      20.60      -1.06
O      41.06      20.78      -1.47
O      37.44      23.36      -1.54
O      38.25      25.46      -1.16
C      42.55      21.64       2.44
C      40.08      26.13       2.52
C      37.38      21.87       2.53
C      42.41      24.66      -1.82
C      39.93      20.22      -1.60
C      37.44      24.63      -1.70
