11

Cu       7.21       1.19       0.00
O       6.45       2.27      -1.46
C       7.46       2.90      -1.99
C       7.55      -0.29       2.65
N       7.95      -0.05       1.40
N       9.04      -0.84       1.20
C       7.46       2.90       1.99
N       9.04      -0.84      -1.20
O       6.45       2.27       1.46
N       7.95      -0.05      -1.40
C       7.55      -0.29      -2.65
