20

Zn      10.83       6.58       7.45
Zn       8.07       6.18       8.07
C       9.75       3.88       7.14
C      10.07       5.86      10.22
C       9.03       8.89       8.08
C       5.91       4.66       9.26
C       5.01       6.33       7.91
C       9.04       6.88       5.24
C      13.74       6.46       7.81
C      13.05       8.27       6.51
N      12.77       7.16       7.22
N       6.09       5.65       8.39
O      10.69       4.64       6.76
O       8.69       4.24       7.76
O      11.01       5.84       9.36
O       8.82       6.00       9.99
O      10.20       8.41       8.20
O       7.95       8.23       8.21
O      10.21       7.22       5.58
O       8.11       6.48       6.02
