18

C       4.18       1.32       2.04
C       0.83      -1.32      -2.04
Al       2.50       0.00       0.01
Al       5.85      -0.00      -0.01
C       4.18       1.92      -1.49
C       0.83      -1.92       1.49
H       4.17      -1.74       0.10
H       0.83       1.74      -0.10
O       5.31       1.43      -1.17
O       1.97      -1.43       1.17
O       3.03       0.99       1.58
O       6.38      -0.99      -1.58
O       3.04       1.48      -1.10
O       6.39      -1.48       1.10
O       1.97      -1.05      -1.52
O       5.31       1.05       1.52
O       4.17      -0.80      -0.12
O       0.83       0.80       0.12
