23

Zn       0.00       6.39      10.23
Zn       1.59       7.98       7.90
Zn      -1.59       7.98       7.90
Zn       0.00       9.57      10.23
C       0.01       7.98      12.70
C      -2.54       5.45       9.06
C       0.01       7.98       5.42
C       2.54      10.52       9.07
C       2.54       5.44       9.06
C      -2.54      10.52       9.07
O       0.01       9.12      12.13
O      -1.14       7.98       5.99
O      -1.58       5.27       9.88
O       2.71       9.56       8.25
O       0.00       7.98       9.06
O       1.57       5.26       9.87
O       2.72       6.41       8.25
O      -1.58      10.69       9.89
O      -2.71       9.56       8.24
O      -2.71       6.41       8.24
O       1.58      10.70       9.88
O       0.01       6.83      12.13
O       1.15       7.98       6.00
