23

Zn       3.92       7.89       8.78
Zn       5.14       5.00       9.32
Zn       3.23       6.40      11.51
Zn       2.01       5.29       8.78
C       6.61       7.10       7.86
C       5.58       4.68      12.28
C       3.58       9.32      11.34
C       0.55       5.19      11.33
C       1.58       7.61       6.91
C       3.58       2.97       7.86
O       3.58       6.14       9.60
O       5.67       7.96       7.91
O       5.91       4.43      11.06
O       3.37       8.28      12.04
O       6.57       5.93       8.37
O       3.78       9.35      10.08
O       4.57       5.42      12.59
O       1.48       5.70      12.04
O       1.25       6.45       7.37
O       0.58       4.99      10.08
O       2.59       8.28       7.37
O       4.68       3.35       8.37
O       2.47       3.60       7.91
