23

Zn       8.40       5.07      12.93
Zn      10.03       6.07      15.49
Zn       8.60       3.24      15.49
Zn       6.84       5.94      15.52
C      10.84       6.59      12.76
C       8.57       2.19      12.80
C       5.89       6.45      12.85
C      11.08       3.76      16.87
C       8.37       7.95      16.93
C       6.11       3.53      16.92
O       8.47       5.08      14.87
O      11.24       6.24      13.92
O       9.64       6.49      12.33
O       8.15       2.03      13.99
O       8.98       3.29      12.28
O       6.05       6.96      14.01
O       6.54       5.45      12.38
O      10.46       2.95      16.11
O      10.87       5.02      16.95
O       7.37       7.16      16.99
O       9.40       7.81      16.18
O       5.70       4.46      16.15
O       7.32       3.10      16.99
