20

Zn       0.78       0.87       5.69
Zn       2.62       3.87       6.92
N       1.94       2.38       8.06
N       2.38      -0.26       5.08
N       1.16       2.57       4.63
N       1.83       3.68       5.07
N       1.25       1.28       7.61
O       2.31       5.76       7.43
O       4.52       3.39       6.46
O      -1.08       0.52       5.26
H       5.02       3.11       7.29
H       5.02       4.18       6.07
C       2.05       4.45       4.00
C       2.36      -1.61       4.98
C       3.05       5.98       8.47
C       1.00       2.72       3.31
C       3.55       0.38       4.88
C       2.16       2.18       9.36
C       1.09       0.47       8.66
C      -1.34      -0.69       5.67
