10

Al       3.95      -5.04       8.73
O       5.00      -4.07       7.45
O       5.00      -4.41      10.21
O       5.00      -6.63       8.53
O       2.90      -3.44       8.58
O       2.90      -5.97       7.42
O       2.90      -5.71      10.19
C       5.94      -3.25       7.73
C       5.94      -5.06      10.78
C       5.94      -6.80       7.68
