11

C       6.26       5.84      16.40
Cd       8.46       5.63      18.04
C       8.54       4.88      21.22
C      10.37       8.21      17.91
C       8.55       8.69      16.81
O       9.57       3.61      18.18
C      10.68       4.08      18.61
N       7.80       5.46      20.21
N       9.21       7.70      17.51
O       7.38       5.35      16.02
C       6.63       5.80      20.73
