24

Al      12.69       1.82       0.46
Al      11.05       4.56       0.16
Al      14.05       4.72       0.12
H      12.86      -0.25       1.54
C      10.49       2.90       2.29
C      12.52       6.47       1.72
C      14.74       3.10       2.28
C      10.49       2.40      -1.48
C      12.42       5.90      -1.94
C      14.77       2.68      -1.55
O      13.99       2.15       1.93
O      11.31       2.02       1.90
O      10.09       3.93       1.63
O      11.39       6.07       1.26
O      13.66       6.21       1.20
O      15.07       4.13       1.57
O      14.07       1.83      -0.94
O      11.39       1.68      -0.97
O      10.05       3.52      -1.00
O      11.30       5.68      -1.37
O      13.57       5.79      -1.41
O      15.13       3.84      -1.10
O      12.60       3.73       0.25
O      12.78       0.09       0.64
