20

Zn       7.70       9.72       8.60
Zn       7.65       6.88       8.48
C       7.22       8.52       5.99
C       8.39       4.20       7.42
C       6.96      12.40       9.66
C      10.26       8.28       8.07
C       5.09       8.32       9.00
C       8.13       8.08      11.08
C       6.78       4.13       9.10
C       8.57      12.47       7.98
N       7.59       4.84       8.29
N       7.76      11.76       8.79
O       7.31       9.64       6.59
O       8.04       6.96      10.48
O       7.19       7.38       6.55
O       8.16       9.22      10.52
O       9.72       9.43       8.10
O       5.63       7.17       8.97
O       9.67       7.15       8.05
O       5.68       9.45       9.02
