21

Ni       3.67      -3.76       6.51
C       2.42      -1.12       5.61
H       4.04      -4.60       8.81
H       3.31      -2.92       4.21
H       1.16      -3.53       6.34
H       6.19      -3.99       6.68
N       3.52      -3.73       8.60
N       3.83      -3.79       4.42
N       1.69      -4.39       6.53
N       5.66      -3.13       6.49
O       4.29      -5.77       6.48
O       3.06      -1.74       6.54
C       2.09      -3.84       8.89
C       5.26      -3.68       4.13
C       1.45      -4.82       7.92
C       5.90      -2.69       5.10
C       1.34      -5.40       5.51
C       6.01      -2.11       7.50
C       4.20      -2.61       9.28
C       3.15      -4.90       3.74
C       4.92      -6.39       7.41
