10

Al       0.09      14.33      16.55
O       1.19      13.47      17.87
O       1.19      13.63      15.15
O       1.19      15.90      16.64
O      -0.98      12.78      16.87
O      -0.98      15.39      17.74
O      -0.98      14.84      15.04
C       2.13      14.20      14.51
C       2.13      16.17      17.46
C       2.13      12.63      17.69
