10

Al       4.29       7.93       0.04
C       6.26       9.75      -1.01
O       5.33       6.35      -0.13
O       5.33       8.90      -1.27
O       5.32       8.57       1.52
O       3.25       6.99      -1.30
O       3.25       7.23       1.50
O       3.25       9.51      -0.08
C       6.23       6.12      -1.03
C       6.21       7.87       2.14
