24

O      14.50       4.11       1.63
O      15.48       1.80       0.28
Al      13.84       0.83       0.53
Al      17.02       0.95       0.13
Al      15.51       3.56       0.17
O      12.33      -0.02       0.76
H      12.17      -0.36       1.65
C      15.49      -0.68      -1.48
C      17.32       2.91      -1.95
C      13.31       3.05      -1.42
C      15.97      -0.43       2.29
C      17.85       3.16       1.73
C      13.82       3.28       2.34
O      13.05       1.96      -0.85
O      14.42      -0.36      -0.91
O      16.69      -0.43      -1.05
O      17.75       1.83      -1.42
O      16.61       3.81      -1.38
O      14.12       3.96      -0.98
O      13.44       2.13       2.01
O      14.77      -0.20       1.95
O      17.02      -0.21       1.58
O      18.15       2.03       1.21
O      17.00       3.99       1.25
