24

La       1.89      11.88       8.03
La       5.59      12.93       8.02
C       2.98      15.71       5.83
C      -0.72       9.10      10.22
C       3.05      12.49      10.75
C      -0.65      12.32       5.30
C       4.66       9.28       5.72
C       0.97      15.53      10.33
C       3.76      10.15       6.50
C       0.06      14.66       9.55
C       3.76      14.82       6.70
C       0.07       9.99       9.35
O       3.87      12.53       9.74
O       0.18      12.27       6.31
O       1.85      12.10      10.57
O       5.55      12.71       5.48
O       4.93      15.14       7.07
O       1.24       9.67       8.99
O       3.25      13.68       7.07
O      -0.44      11.13       8.98
O       4.24      10.87       7.47
O       0.54      13.94       8.58
O       2.52      10.20       6.23
O       6.22      14.61       9.82
