20

Zn       6.65       5.79       7.93
Zn       3.77       5.91       8.15
C       4.96       3.30       7.59
C       5.48       5.55      10.61
C       5.30       8.43       8.18
C       9.42       4.71       8.66
C      10.83       4.85       8.89
C      10.84       6.78       7.61
C       9.44       6.69       7.46
C       5.03       6.22       5.47
N      11.52       5.89       8.31
N       8.75       5.67       7.96
O       6.11       3.83       7.73
O       3.85       3.92       7.59
O       6.59       5.66      10.01
O       4.33       5.42      10.07
O       6.43       7.83       8.10
O       4.19       7.89       8.49
O       6.21       6.07       5.94
O       3.95       6.36       6.14
