23

Zn      17.74       4.97      32.01
Zn      14.53       4.87      31.85
Zn      16.22       2.15      31.85
Zn      16.05       3.92      34.52
C      16.13       6.99      30.56
C      13.74       2.47      30.30
C      18.84       2.65      30.56
C      16.14       0.97      34.56
C      18.54       5.48      34.82
C      13.44       5.31      34.55
O      16.14       3.98      32.56
O      17.28       6.55      30.93
O      13.52       3.68      30.66
O      17.88       1.85      30.82
O      14.99       6.48      30.82
O      18.95       3.87      30.93
O      14.72       1.74      30.65
O      16.21       0.81      33.29
O      17.56       4.87      35.36
O      16.07       2.07      35.19
O      18.75       5.61      33.57
O      13.33       5.45      33.29
O      14.40       4.75      35.19
