12

Cu       8.09       6.85      13.11
N       6.96       7.62      11.40
C       6.47       5.98      15.34
O       8.12       4.95      12.47
C       6.71       6.87      10.31
C      10.96       6.86      12.97
O       6.43       6.45      14.16
C       8.77       8.81      15.13
C       6.41       8.84      11.46
C       8.66       4.03      13.18
O       9.90       7.14      12.30
O       8.21       8.64      14.00
