14

Zn       8.70      12.34       7.47
Zn      10.31      14.52       7.48
O       9.53      11.22       8.83
O      10.91      13.03       8.86
O      10.17      12.16       6.03
O      11.55      13.95       6.10
O       7.32      12.93       6.20
C      11.19      12.80       5.64
O       8.06      13.82       8.81
O       9.52      15.56       8.91
C       8.45      14.93       9.28
C       7.61      14.14       5.86
C      10.52      11.90       9.31
O       8.67      14.77       6.16
