14

O       9.70      -0.03       2.49
O      11.29       0.89      -1.47
O      10.20       1.79       0.30
Zn      10.07      -0.56      -1.01
Zn       8.63       0.58       0.97
O       7.33       1.63      -0.03
O       8.44       0.59      -1.70
C       8.07      -2.20      -0.36
C      10.68      -0.74       2.05
C      11.06       1.85      -0.64
C       7.57       1.41      -1.28
O       9.07      -2.22      -1.18
O       7.85      -1.29       0.50
O      10.92      -1.01       0.83
