23

Zn      10.50      11.58       9.43
Zn      12.71      10.90       7.26
Zn      12.83      13.68       8.96
Zn      10.62      13.26       6.70
C      11.81      11.59       4.55
C      11.33      13.47      11.50
C      11.46       8.89       8.88
C      12.01      15.82       7.11
C      15.21      12.01       8.37
C       8.10      12.28       7.86
O      11.68      12.36       8.07
O      14.61      11.05       7.78
O       8.69      13.04       7.01
O      14.70      13.06       8.89
O       8.65      11.55       8.76
O      11.18       9.76       9.77
O      11.07      15.15       6.57
O      12.70      11.05       5.29
O      12.32      13.93      10.83
O      10.93      12.44       4.92
O      10.49      12.60      11.10
O      11.92       9.15       7.71
O      12.79      15.40       8.03
