14

O      14.17      20.93       7.88
O      15.51      19.95       6.33
O      13.70      23.69       7.45
Zn      14.97      22.76       8.59
O      16.72      23.85       8.32
Zn      16.48      21.60       6.67
O      15.67      21.90      10.19
O      15.13      22.94       5.85
O      17.95      22.88       6.67
O      16.93      20.87       8.60
C      14.53      19.94       7.17
C      14.03      23.48       6.22
C      17.73      23.79       7.55
C      16.56      21.05       9.80
