9

N       0.32       4.48       3.49
I       0.87       4.75      -0.15
I       3.50       2.61       2.98
Zn       1.26       3.40       1.97
C       0.17       0.84       3.01
C      -0.76       1.39       0.95
C      -1.00       4.74       3.41
C       1.04       5.02       4.49
N       0.08       1.68       1.96
