23

Zn       9.69       9.68      33.31
Zn       9.69      11.94      35.61
Zn      11.92      11.94      33.31
Zn      11.92       9.68      35.61
O      10.81      10.81      34.46
O       7.82       9.80      33.92
O      10.27      13.82      35.46
O      11.76      11.43      31.43
O       7.82      11.81      35.00
O       9.85      10.19      31.43
O      11.35      13.82      33.45
O      13.80      11.81      33.92
O      11.35       7.80      35.46
O      13.80       9.80      35.00
O      10.27       7.80      33.45
O       9.85      11.43      37.48
C       7.25      10.81      34.46
C      10.81      14.38      34.46
C      10.81      10.81      30.85
C      14.36      10.81      34.46
C      10.81       7.24      34.46
C      10.81      10.81      38.06
O      11.76      10.19      37.48
