24

O       4.51       3.90       1.22
O       1.98       4.13       1.42
O       3.05       1.73       0.24
Al       1.43       0.76       0.54
Al       4.60       0.89       0.09
Al       3.07       3.48       0.06
O       0.61       1.80      -0.89
O       2.00      -0.50      -0.82
O       4.24      -0.40      -1.19
O       5.43       1.82      -1.35
O      -0.06      -0.10       0.87
H      -0.27      -0.25       1.80
C       3.03      -0.70      -1.53
C       5.01       2.88      -1.92
C       0.93       2.81      -1.57
C       3.59      -0.54       2.24
C       5.34       3.08       1.75
C       1.36       3.33       2.21
O       4.24       3.76      -1.41
O       1.74       3.75      -1.21
O       1.03       2.13       1.98
O       2.40      -0.19       2.02
O       4.60      -0.38       1.46
O       5.64       1.93       1.28
