20

Zn       7.03       6.31      36.72
Zn       7.10       6.36      39.78
C       7.09       3.81      38.79
C       9.59       6.33      37.69
C       7.12       8.89      38.68
C       4.51       6.30      37.83
C       7.24       5.13      33.71
C       6.62       7.36      33.71
C       6.10       6.68      42.81
C       8.33       6.07      42.77
N       6.95       6.25      34.38
N       7.21       6.38      42.12
O       7.06       4.35      37.65
O       7.10       4.41      39.93
O       9.05       6.35      38.84
O       8.99       6.31      36.56
O       7.13       8.32      39.84
O       7.07       8.30      37.56
O       5.07       6.28      36.67
O       5.09       6.33      38.95
