23

O      -7.06      17.25      12.36
O      -7.06      18.57      14.22
Zn      -5.46      21.32      10.88
Zn      -7.06      18.54      10.88
Zn      -8.67      21.32      10.88
Zn      -7.06      20.39      13.50
C      -4.51      18.92       9.45
C      -9.62      18.92       9.45
C      -7.06      23.34       9.45
C      -9.62      21.87      13.62
C      -4.51      21.87      13.62
C      -7.06      17.44      13.62
O      -7.06      20.39      11.54
O      -4.35      20.14       9.78
O      -8.64      18.17       9.78
O      -8.20      22.87       9.78
O      -5.48      18.17       9.78
O      -5.93      22.87       9.78
O      -9.78      20.14       9.78
O      -9.78      21.96      12.36
O      -5.48      21.31      14.22
O      -8.64      21.31      14.22
O      -4.35      21.96      12.36
