10

Al       4.23      21.47       7.44
C       2.11      21.42       9.46
C       2.11      23.25       6.47
C       2.11      19.74       6.39
O       3.08      20.53       6.20
O       3.08      20.87       8.87
O       3.08      23.01       7.24
O       5.35      19.94       7.12
O       5.35      22.51       6.27
O       5.35      21.96       8.92
