23

Zn      12.83      14.09      10.10
Zn      12.99      12.35       7.42
Zn      11.36      15.10       7.46
Zn      14.58      15.16       7.64
C      12.84      11.15      10.11
C      10.55      12.74       5.89
C      10.29      15.57      10.17
C      12.96      17.16       6.19
C      15.38      15.57      10.43
C      15.58      12.90       6.13
O      12.95      14.18       8.15
O      12.87      12.24      10.77
O      11.63      12.08       6.03
O      10.24      15.82       8.91
O      12.80      11.01       8.84
O      11.19      14.92      10.80
O      10.24      13.80       6.52
O      11.84      16.54       6.20
O      15.69      15.60       9.19
O      13.99      16.90       6.89
O      14.33      15.05      10.93
O      14.81      12.07       6.72
O      15.60      14.17       6.28
