62

Hf      15.80       1.73       0.13
Hf      19.34       1.64       0.12
Hf      15.70      -1.80       0.11
Hf      19.23      -1.88       0.10
Hf      17.52      -0.08      -2.34
Hf      17.52      -0.09       2.58
H      17.50       2.71       2.07
H      20.30      -0.14      -1.84
H      17.54      -2.88       2.05
H      14.74      -0.07      -1.84
H      21.92       1.55      -0.60
H      21.51      -0.26       0.18
H      19.14      -4.42      -0.60
H      17.31      -4.08       0.08
H      13.18      -1.63       0.90
H      13.52       0.15       0.15
H      15.95       4.26      -0.62
H      17.74       3.90       0.08
H      15.91      -4.50       0.85
H      13.13       1.54      -0.67
H      19.15       4.29       0.87
H      21.74      -1.62       1.06
O      15.52      -0.04      -1.26
C      15.31       2.08       3.34
O      15.07      -2.60      -1.88
C      19.75      -2.26       3.34
O      15.05       2.53      -1.84
O      16.20       1.36      -3.42
O      20.03       2.44       2.11
O      18.95       1.19       3.67
O      20.02       2.41      -1.89
O      18.83       1.27      -3.45
O      14.97       2.32       2.13
O      16.20       1.23       3.70
O      16.33       3.79       0.14
O      13.60       1.24       0.13
O      18.82       3.83       0.08
O      21.40       1.20       0.14
O      17.55       1.40      -0.92
O      17.53       1.92       1.51
O      14.94      -2.60       2.06
O      16.08      -1.42       3.64
C      15.37       2.26      -3.06
O      18.81      -1.50      -3.43
C      19.68       2.16      -3.09
O      19.94      -2.70      -1.86
O      18.83      -1.45       3.70
O      20.13      -2.48       2.14
O      16.24      -4.01       0.08
C      19.75       2.12       3.32
C      15.37      -2.32      -3.09
O      21.43      -1.33       0.18
C      15.24      -2.31       3.28
O      17.49      -1.55      -0.93
C      19.63      -2.41      -3.07
O      16.19      -1.40      -3.46
O      19.52      -0.14      -1.27
O      19.00      -0.09       1.16
O      13.65      -1.27       0.13
O      18.75      -3.95       0.15
O      17.51      -2.09       1.49
O      16.05      -0.07       1.15
