23

Zn      10.62      18.49       0.91
Zn       8.91      16.93      -1.20
Zn       9.05      20.13      -1.30
Zn       7.37      18.59       1.05
O       8.96      18.56      -0.12
O      11.77      16.96       0.52
O       9.19      17.35      -3.09
O      10.66      21.22      -1.01
O      10.32      15.68      -0.68
O      11.68      20.12       0.70
O       9.02      19.62      -3.21
O       7.48      21.25      -0.95
O       7.89      18.60       2.98
O       6.28      20.18       0.66
O      10.15      18.37       2.82
O       7.22      15.99      -1.05
O       6.32      16.93       0.82
C      11.43      15.88      -0.08
C       9.10      18.45      -3.72
C      11.56      21.09      -0.11
C       6.50      21.16      -0.14
C       9.06      18.47       3.47
C       6.37      16.04      -0.09
