23

Zn      19.99       8.26      23.71
Zn      23.19       8.34      23.87
Zn      21.46       7.26      26.36
Zn      21.69       5.52      23.71
C      21.61      10.37      22.40
C      23.97       8.82      26.68
C      18.88       8.67      26.43
C      21.58       4.29      26.39
C      19.19       5.83      22.17
C      24.30       6.00      22.40
O      21.59       7.34      24.40
O      20.48       9.84      22.68
O      24.20       9.02      25.43
O      19.85       8.12      27.08
O      22.77       9.92      22.78
O      18.78       8.78      25.16
O      23.02       8.14      27.17
O      21.46       5.41      27.00
O      20.16       5.08      22.55
O      21.68       4.14      25.11
O      18.99       7.04      22.51
O      24.39       7.21      22.82
O      23.31       5.19      22.64
