10

Al       3.94      21.80      12.58
O       4.99      22.76      11.29
O       4.99      22.44      14.06
O       4.99      20.20      12.40
O       2.90      23.40      12.40
O       2.90      20.84      11.29
O       2.90      21.16      14.06
C       5.92      23.60      11.55
C       5.92      21.80      14.66
C       5.92      20.00      11.55
