20

Zn       6.32       5.60       7.25
Zn       3.58       5.60       7.25
C       4.95       3.00       7.24
C      10.59       6.42       6.46
C       9.19       4.77       8.04
C      10.59       4.77       8.04
C       4.95       8.19       7.25
C       9.19       6.42       6.46
C       4.95       5.63       9.87
C       4.95       5.56       4.63
N       8.51       5.60       7.25
N      11.27       5.60       7.25
O       6.08       3.58       7.24
O       3.81       7.61       7.26
O       6.08       7.61       7.25
O       3.81       3.58       7.25
O       6.09       5.62       9.30
O       3.81       5.57       5.19
O       6.09       5.57       5.19
O       3.81       5.62       9.30
