18

Al       6.04      -0.02       9.96
Al       9.36      -0.11       9.98
O       7.68      -0.90       9.94
O       4.35       0.76       9.87
H       7.62      -1.72       9.43
H       4.28       1.55       9.30
C       4.38      -1.69       8.19
C       4.46      -1.51      11.86
C       7.74       1.49      11.76
C       7.68       1.45       8.08
O       5.42      -1.48       8.89
O       9.98      -1.39      11.25
O       8.88       0.96      11.51
O       6.51       0.99       8.34
O       6.69       1.38      11.05
O       8.74       1.25       8.76
O       9.85      -1.27       8.45
O       5.55      -0.96      11.54
