20

Zn       5.22       5.16       8.46
Zn       4.98       8.07       8.61
C       5.18       7.05       5.96
C       2.54       6.42       8.47
C       4.85       6.54      11.09
C       7.66       6.57       8.39
C       3.76      10.70       8.14
C       5.70      11.01       9.39
C       6.22       2.26       9.08
C       4.60       2.28       7.44
N       4.84      10.19       8.77
N       5.35       2.97       8.33
O       5.02       5.92       6.50
O       5.19       8.18       6.55
O       2.99       7.58       8.24
O       3.23       5.37       8.73
O       4.52       7.65      10.57
O       5.43       5.59      10.50
O       7.20       5.40       8.20
O       6.98       7.61       8.65
