23

C       6.69      13.29      16.24
Cd       6.78       9.68      15.41
Cd       6.42      13.06      13.44
C       6.54       9.53      12.59
C       9.59      13.69      13.83
C       9.20      12.15      12.14
C       3.32      12.44      12.65
C       3.48      13.63      14.63
C       3.67       9.57      14.70
C       3.99      10.74      16.68
N       8.72      12.98      13.08
C       9.71       9.02      14.18
C       9.89      10.69      15.78
N       4.08      12.97      13.63
N       4.50      10.07      15.63
N       9.12       9.89      15.02
O       6.97       9.39      17.70
O       6.19      13.34      11.13
O       6.46      14.30      15.49
C       7.45       8.19      17.68
O       6.75       8.51      13.34
O       6.31      10.68      13.08
C       5.91      14.59      11.16
