23

Zn      18.45       5.40      13.21
Zn      18.42       3.57      15.85
Zn      16.85       6.33      15.85
Zn      20.04       6.34      15.85
C      20.98       3.88      17.21
C      15.87       6.79      13.08
C      18.20       2.49      13.13
C      18.40       8.40      17.24
C      16.03       4.04      17.51
C      20.98       6.91      13.11
O      18.44       5.42      15.17
O      21.07       5.15      17.02
O      18.61       3.54      12.54
O      16.81       6.19      12.45
O      17.91       2.38      14.37
O      17.26       8.00      16.81
O      17.06       3.32      17.25
O      21.16       6.98      14.37
O      15.78       5.20      17.04
O      20.00       6.38      12.50
O      19.54       7.89      16.96
O      20.13       3.09      16.68
O      15.71       6.86      14.34
