23

Zn      -1.57       6.22       6.95
Zn       1.64       6.23       6.88
Zn       0.08       3.49       6.97
Zn       0.11       5.32       9.58
O       0.06       5.34       7.61
O       1.82       6.03      10.21
O      -1.09       7.79       5.88
O      -2.64       5.07       5.78
O       1.16       7.61       5.58
O       0.24       2.29       8.50
O       2.85       5.00       5.95
O      -1.34       6.48      10.28
O       1.50       3.19       5.65
O      -2.67       6.86       8.46
O      -0.48       3.56      10.25
O       2.64       7.06       8.34
O      -1.57       3.07       6.01
C       2.65       6.78       9.59
C      -2.46       3.83       5.52
C       0.01       8.13       5.35
C      -0.19       2.44       9.70
C       2.57       3.86       5.45
C      -2.41       6.85       9.71
