20

Zn       8.41       7.70      11.86
Zn       5.65       7.71      11.86
C       7.12      10.32      11.84
C       7.10       5.10      11.87
C       6.94       7.71       9.25
C       6.95       7.70      14.46
C       2.92       8.00      10.73
C      11.15       6.59      12.21
C       2.92       7.42      12.99
C      11.15       8.82      11.50
N       3.58       7.71      11.86
N      10.48       7.71      11.86
O       8.23       9.75      11.56
O       6.02       5.70      11.58
O       8.21       5.66      12.15
O       6.03       9.72      12.14
O       8.04       7.46       9.85
O       5.83       7.45      13.89
O       8.04       7.95      13.86
O       5.83       7.97       9.83
