15

N       2.31      20.18      10.62
N       1.74      21.32      11.14
N       3.03      22.64      14.33
Cu       3.84      19.51      11.38
N       4.22      22.18      14.85
Cu       2.40      21.97      12.73
Cu       5.01      20.70      14.09
C       6.17      17.78      11.70
C       6.87      18.45      13.69
C       0.70      21.67      10.35
C       1.60      19.82       9.53
C       4.51      22.92      15.94
C       2.59      23.65      15.11
N       5.82      19.22      13.33
N       5.38      18.79      12.10
