23

Zn      18.38       7.29       8.83
Zn      16.86       4.44       8.65
Zn      18.64       5.48       6.19
Zn      20.07       4.56       8.88
C      15.77       6.77      10.12
C      16.10       3.93       5.87
C      18.50       8.44       6.12
O      18.48       5.44       8.15
O      16.74       7.57       9.87
C      20.89       6.94      10.39
O      18.59       7.32       5.52
O      15.81       3.80       7.11
O      18.42       8.63       7.39
O      15.65       5.56       9.74
C      18.47       2.43      10.13
O      17.12       4.52       5.40
O      20.27       4.64       5.50
O      19.91       7.66      10.01
O      17.34       2.86       9.73
O      21.12       5.73      10.05
O      21.29       3.99       7.44
O      19.62       2.95       9.90
C      21.22       4.10       6.18
