9

In       4.47      12.65       3.65
C       4.19      15.06       2.45
C       6.84      13.19       4.85
O       4.32      11.71       1.67
O       3.64      12.19       5.63
O       3.34      14.48       3.24
O       6.58      12.19       4.06
C       4.40      10.48       2.03
C       2.45      11.86       5.27
