18

Al       6.37       5.36       6.13
Al       3.03       5.40       6.17
H       4.69       3.89       7.05
H       8.01       6.88       5.24
O       6.98       3.55       6.31
O       9.08       5.29       8.01
O       3.53       7.24       6.38
O       5.87       4.95       4.33
O       5.74       7.16       5.93
O       3.64       5.45       4.31
O       9.20       3.57       5.93
O       6.85       5.76       7.94
O       4.70       4.82       6.77
O       8.03       5.96       5.54
C       8.10       2.97       6.13
C       7.95       5.51       8.57
C       4.66       7.79       6.17
C       4.75       5.16       3.75
