19

N       7.34       4.48       1.18
N       6.97       6.80      -0.33
Ga       7.90       6.46       1.51
N       8.24       8.50       1.43
P      10.59       4.94       0.64
P       5.27       6.60       3.64
P       9.76       6.59       4.14
O       9.58       6.12       0.52
H       6.67       4.22       1.91
H       8.22       3.92       1.26
H       7.68       6.71      -1.07
H       7.83       8.94       2.27
O       6.07       6.69       2.35
H       9.26       8.65       1.44
O       8.63       6.06       3.25
C       6.73       4.39      -0.16
C       6.01       5.70      -0.50
C       6.49       8.19      -0.28
C       7.66       9.06       0.18
