40

Cu      10.73      13.70       3.12
Cu      11.93      12.42       5.03
Cu      11.00      14.81       5.48
Cu       9.37      12.83       5.24
Cu      11.81      16.78       2.94
Cu      10.25       9.73       5.97
Cu       7.50      13.27       2.60
Cu      13.47      13.95       7.47
C      12.64      18.73       5.04
C       7.34       9.13       6.24
C      11.47      13.99       0.12
C      14.04      10.18       4.79
C      10.99      17.07       7.59
C       6.52      12.47       6.39
C       8.06      14.40      -0.12
C      15.01      11.43       7.84
C      10.88      19.31       3.91
C       8.47       9.00       8.09
C      12.01      16.08       0.10
C      12.87       8.52       5.54
C      12.74      16.50       8.73
C       5.39      12.60       4.55
C       7.52      12.31      -0.10
C      16.17      13.09       7.09
I      13.38      14.44       4.28
I       9.90      11.24       3.15
I      10.73      12.50       7.43
I       9.01      15.56       4.02
N      11.38      14.42       1.38
N      12.81      10.64       5.02
N      11.43      15.93       7.07
N       7.39      12.75       5.42
N      11.83      18.33       4.01
N       8.61       9.25       6.75
N       7.68      13.39       0.72
N      14.92      12.75       7.52
N      11.73      15.75       1.37
N      12.07       9.58       5.50
N      12.54      15.56       7.80
N       6.68      12.84       4.25
