20

Zn       3.71       5.71       5.49
Zn       6.48       5.55       5.42
C       4.98       3.01       5.44
C      -0.47       6.65       5.97
C      -0.38       4.63       4.84
C       0.92       6.70       5.98
C       1.01       4.68       4.86
C       5.14       8.25       5.44
C       5.10       5.56       2.86
C       5.17       5.68       8.04
N       1.65       5.71       5.44
N      -1.11       5.61       5.41
O       3.88       3.62       5.27
O       4.02       7.76       5.75
O       6.12       3.53       5.68
O       6.17       7.59       5.08
O       4.03       5.86       3.49
O       4.04       5.49       7.48
O       6.21       5.24       3.41
O       6.28       5.87       7.43
