9

Hg       5.30       2.97       3.31
C       3.96       5.78       1.80
C       2.30       3.80       4.83
N       4.12       4.40       1.77
N       3.69       3.89       4.86
Cl       4.49       0.83       2.54
Cl       7.27       4.15       4.09
C       3.34       3.96       0.80
C       3.98       4.73       5.83
