20

Zn       9.66       8.90      14.42
Zn       6.90       8.87      14.44
C       8.23      11.49      14.41
C       8.33       8.97      17.03
C       8.27       6.28      14.49
C       8.30       8.83      11.83
C       4.19       9.67      15.33
C       4.18       8.06      13.63
C      12.37       9.67      15.32
C      12.38       8.08      13.60
N       4.85       8.86      14.48
N      11.71       8.88      14.45
O       9.34      10.91      14.15
O       7.12      10.91      14.64
O       7.24       8.66      16.47
O       9.43       9.24      16.45
O       7.16       6.84      14.24
O       9.37       6.87      14.73
O       9.42       8.60      12.40
O       7.19       9.04      12.41
