9

Zn       7.59       8.44       6.43
C       5.45       9.96       4.97
I       9.30       6.98       5.18
I       8.32      10.64       7.48
N       6.71       7.31       7.91
C       7.48       6.47       8.63
C       5.37       7.66       4.62
N       5.95       8.73       5.20
C       5.46       7.58       8.33
