24

Al      -0.30      -2.47      26.25
Al       1.30       0.29      26.61
Al      -1.71       0.41      26.62
O      -1.79      -2.14      24.92
O       0.89      -2.18      24.68
O       2.29      -0.46      25.21
O       1.05       1.74      25.44
O      -0.37      -4.20      26.02
H      -0.65      -4.50      25.15
C       1.81      -1.35      24.42
C      -0.09       2.08      24.93
C      -2.50      -1.18      24.53
C       1.89      -1.84      28.20
C      -0.20       1.66      28.65
C      -2.31      -1.71      28.33
O      -1.23       1.84      25.47
O      -2.79      -0.12      25.21
O      -1.50      -2.52      27.80
O       1.17      -2.61      27.51
O       2.27      -0.65      27.86
O       0.92       1.46      28.08
O      -1.35       1.52      28.11
O      -2.71      -0.59      27.84
O      -0.24      -0.57      26.49
