36

Zn      -1.11      -2.87       8.83
Zn      -3.79      -6.64       8.83
Zn      -1.13      -5.69       7.08
Zn      -3.59      -3.97      10.66
C       0.83      -3.94       5.35
C      -1.87      -5.76      12.32
C      -2.09      -7.67      11.23
N      -0.13      -2.96       7.07
N      -2.90      -4.96       6.58
N      -4.06      -2.74       9.08
N      -4.00      -5.37       7.28
N      -3.02      -2.22       8.40
N      -5.35      -5.00      10.72
N       0.01      -4.15       6.39
N      -1.39      -1.94      10.66
N      -2.69      -8.07       7.83
N      -0.25      -5.69       8.89
N      -2.47      -5.52      11.14
N      -2.61      -6.69      10.47
N      -0.23      -4.51       9.57
N      -2.43      -2.45      11.40
N      -1.56      -7.70       7.13
N      -5.44      -6.12       9.92
C       0.59      -2.03       6.42
C       0.83      -4.51      10.40
C      -2.66      -1.62      12.43
C      -6.71      -6.55       9.96
C      -0.66      -8.69       7.25
C      -3.30      -4.55       5.36
C      -4.93      -1.75       9.40
C      -5.08      -5.22       6.48
C      -0.99      -0.80      11.25
C      -3.23      -0.87       8.30
C      -2.46      -9.28       8.36
C      -6.56      -4.76      11.25
C       0.79      -6.43       9.30
