30

Zn       0.10       5.40       6.99
Zn      -5.01       3.41       8.26
C       0.94       7.09       9.04
C      -4.17       1.72       6.22
N       0.35       3.39       7.51
N       5.45       5.42       7.74
N      -0.43       5.73       5.02
N      -5.53       3.08      10.23
O      -1.92       4.86       7.62
O       3.19       3.95       7.63
O      -2.97       3.31       8.89
O       2.13       5.49       6.37
O       0.13       7.09       8.03
O      -4.98       1.72       7.23
O       1.65       6.15       9.43
O      -3.45       2.66       5.82
H       0.96       8.06       9.58
H      -4.15       0.74       5.67
H       1.31       3.39       7.88
H       6.42       5.42       7.37
C      -1.58       5.28       4.47
C      -6.68       3.53      10.78
C       0.43       6.42       4.25
C      -4.67       2.39      11.00
C       0.32       2.54       6.30
C       5.42       6.27       8.96
C      -0.65       3.00       8.52
C       4.45       5.81       6.73
C      -1.95       3.79       8.31
C       3.15       5.02       6.94
