20

Zn       5.81       2.99       7.19
Zn       5.81       3.00       4.36
C       6.36       5.54       5.72
C       3.23       3.31       5.75
C       8.40       2.71       5.67
N       5.72       2.65       2.34
N       6.01       3.18       9.22
O       7.82       2.91       6.78
O       7.82       2.46       4.56
O       3.82       3.52       4.64
O       3.80       3.07       6.87
O       5.67       0.92       7.09
C       5.10       3.49       1.48
O       5.26       1.06       4.86
O       5.93       5.04       6.81
O       6.40       4.93       4.59
C       6.17       1.47       1.88
C       5.55       4.29       9.82
C       6.69       2.27       9.94
C       5.27       0.44       5.97
