40

Cd       0.00      12.34       1.42
Cd       0.00      15.17      -1.42
N      -2.34      15.03      -1.38
N      -2.34      12.48       1.38
N       2.34      15.03      -1.38
N       2.34      12.48       1.38
O       0.00      10.51       3.04
O       0.00      12.61       3.78
H      -2.42      13.32      -2.55
H      -4.90      13.25      -2.64
O       0.00      17.00      -3.04
O       0.00      14.89      -3.78
O      -0.00      10.65      -0.26
O       0.00      12.72      -1.10
H      -2.44      16.75      -0.23
H      -4.91      16.84      -0.20
O       0.00      16.85       0.26
O       0.00      14.78       1.10
H       2.42      13.32      -2.55
H       4.90      13.25      -2.64
H       4.91      16.84      -0.20
H       2.44      16.75      -0.23
C      -3.02      13.43       2.04
C      -3.03      11.52       0.75
C      -3.02      14.08      -2.04
C      -4.41      14.05      -2.08
C      -5.16      15.04      -1.42
C      -4.42      16.03      -0.74
C      -3.03      15.99      -0.75
C       3.02      14.08      -2.04
C       4.41      14.05      -2.08
C       5.16      15.04      -1.42
C       4.42      16.03      -0.74
C       3.03      15.99      -0.75
C       3.02      13.43       2.04
C       3.03      11.52       0.75
C       0.00      11.33       4.00
C       0.00      16.17      -4.00
C       0.00      11.45      -1.26
C       0.00      16.06       1.26
