24

Al       1.62       1.16       0.48
Al      -1.55       0.65       0.52
Al       0.24      -1.74       0.36
O       2.34      -0.04       1.84
O      -1.49       1.72       2.04
O      -1.01      -2.34       1.64
O       0.73       2.11       1.97
O      -2.43      -0.59       1.65
O       1.49      -2.13       1.69
O       0.09       0.01       0.44
O       0.77       2.27      -0.84
H       3.64       2.05       1.24
O      -2.35      -0.23      -0.97
O       1.49      -2.05      -0.96
O       2.30       0.08      -1.06
O      -1.49       2.12      -0.61
O      -1.05      -2.10      -1.02
O       3.04       2.19       0.50
C      -0.39       2.15       2.55
C      -1.94      -1.65       2.17
C       2.19      -1.21       2.28
C      -0.41       2.44      -1.25
C      -1.90      -1.29      -1.53
C       2.09      -1.06      -1.55
