18

Al       1.65       5.45      19.08
Al       5.01       5.36      19.11
H       3.26       3.76      19.65
H      -0.09       7.16      19.34
C       3.32       7.00      20.93
C       3.38       6.99      17.29
O       4.49       6.50      17.68
C       0.01       3.82      17.29
O       2.17       6.64      20.51
C      -0.02       3.83      20.94
O       1.07       4.13      20.37
O       2.23       6.73      17.79
O       1.13       4.32      17.66
O       4.44       6.67      20.42
O       3.32       4.58      19.14
O      -1.12       4.07      17.82
O      -1.19       4.19      20.57
O      -0.05       6.22      19.12
