14

Zn       8.46      12.29       7.70
O      10.81      12.95       6.38
O       7.83      13.65       6.31
O       9.34      11.23       6.29
O       7.13      12.97       9.00
Zn      10.09      14.45       7.66
O       9.27      15.39       6.14
O       8.49      14.79       8.95
C      10.94      12.72       9.51
C      10.38      11.88       5.87
C       8.28      14.68       5.70
C       7.43      14.19       9.30
O       9.94      12.08       9.07
O      11.31      13.88       9.09
