23

Zn      -1.24       9.33      13.73
Zn       0.41       7.77      15.96
O      -2.40       7.79      14.08
O       0.40       9.37      14.82
Zn       0.32      10.94      15.98
Zn       2.02       9.39      13.71
O      -2.31      10.94      13.99
O      -1.09       6.60      15.50
O      -1.26      12.06      15.66
O       0.26       8.21      17.86
O       0.36      10.50      17.90
O      -0.71       9.28      11.84
O       2.05       6.73      15.77
O       1.90      12.05      15.65
O       1.57       9.41      11.78
O       3.16      10.95      14.11
O       3.09       7.75      14.02
C      -2.13       6.75      14.77
C       0.35       9.34      18.45
C      -2.17      11.93      14.78
C       2.92      11.93      14.89
C       0.41       9.35      11.24
C       2.96       6.81      14.88
