18

Mg       0.15      15.83      10.33
Mg       2.41      17.19       9.10
Mg      -2.12      15.44       8.54
O       0.84      16.08       8.43
O       3.32      16.48       7.42
O       1.54      14.74      11.28
O       3.10      15.42       9.84
O      -1.20      14.35      10.00
C      -1.81      18.19       9.91
C      -1.78      13.51      10.87
C       2.71      14.63      10.79
C       0.49      18.82      10.84
C       2.75      16.13       6.26
C       0.45      15.64       7.27
O       3.81      18.55       9.57
O      -1.42      16.97       9.70
O       1.06      17.64      10.55
O      -0.72      15.17       7.12
