11

Cu       2.10       5.25      10.54
C       2.44       6.73       7.89
O       1.34       4.16       9.08
C       2.35       3.54      12.54
C       2.35       3.54       8.55
O       1.34       4.16      12.01
N       2.84       6.48       9.14
N       3.94       7.27      11.74
N       2.84       6.48      11.94
N       3.94       7.27       9.35
C       2.44       6.73      13.19
