13

Zn       5.18      24.47      20.65
N       7.14      24.09      20.81
C       4.13      23.10      18.13
C       4.13      27.26      20.68
N       4.45      24.13      22.52
C       4.13      24.88      23.60
C       4.37      21.65      19.72
C       8.26      24.81      20.58
C       4.44      26.64      18.62
N       4.63      26.25      19.93
C       4.33      22.83      22.95
C       7.58      22.84      21.20
N       4.51      22.99      19.42
