36

Zn       1.95      11.41      22.42
Zn      -2.98      10.94      22.49
Zn      -0.50      11.27      24.89
Zn      -0.53      11.08      20.02
N       2.08      10.16      24.04
N      -3.11      12.18      20.87
N      -2.90      12.49      23.82
N       1.87       9.86      21.09
C       2.92       9.20      24.42
N       1.31      12.95      23.58
N       2.13      12.58      20.67
C       2.95       9.32      20.50
C      -3.96      13.14      20.49
N      -2.34       9.40      21.33
C      -3.97      13.02      24.41
N      -3.16       9.76      24.24
N      -2.22      10.03      25.20
N       1.19      12.31      19.71
N       1.05      12.74      24.92
N      -2.08       9.61      19.99
N       0.76       9.55      20.34
N      -1.79      12.79      24.57
N      -1.85      12.51      20.42
N       0.82       9.84      24.49
C      -2.69       8.11      21.51
C       1.66      14.24      23.40
C       3.26      13.00      20.06
C      -4.29       9.35      24.85
C      -2.78       9.79      26.39
C       1.75      12.56      18.52
C       1.25      13.89      25.55
C      -2.28       8.45      19.36
C       1.16       8.81      19.29
C      -2.19      13.54      25.62
C      -1.92      13.68      19.75
C       0.89       8.67      25.16
