12

C       9.82       5.24      16.88
C       9.63       5.14      21.99
O       8.59       5.63      21.37
Zn       8.43       4.85      19.56
C       5.93       5.48      17.81
N       8.26       2.85      19.57
N       9.70       5.55      18.22
N       6.59       5.53      19.02
C       5.75       6.09      19.89
C       9.20       2.06      20.10
C       7.32       2.02      18.98
C      10.46       6.63      18.42
