20

Zn       6.69       7.71       8.63
Zn       9.45       7.70       8.52
C       8.10      10.34       8.43
C       8.06       5.08       8.69
C       3.98       6.80       9.35
C      12.16       8.59       7.87
C       3.97       8.56       7.81
C      12.16       6.83       9.40
C       8.00       8.09      11.16
C       8.10       7.70       5.96
N       4.64       7.68       8.57
N      11.50       7.71       8.63
O       6.97       9.77       8.55
O       9.20       5.66       8.67
O       9.23       9.76       8.30
O       6.93       5.65       8.72
O       6.85       7.84      10.66
O       9.26       7.64       6.46
O       9.11       8.01      10.53
O       7.00       7.66       6.61
