16

N       5.47      17.03      11.66
Zn       5.64      18.80      10.70
Zn       3.22      19.33       8.37
N       3.04      21.10       7.41
O       6.71      20.16      11.69
C       6.63      20.25      12.99
H       5.84      18.12       8.31
O       4.29      17.97       7.38
C       6.16      16.68      12.73
O       4.09      19.79      10.08
O       6.52      18.34       8.99
C       2.34      22.23       7.82
H       3.42      20.01      10.76
C       3.74      21.45       6.34
C       4.21      17.88       6.08
C       4.76      15.90      11.25
