16

Zn       5.55      10.17       5.87
C       6.91       8.17       3.93
O       4.36      10.01       4.12
O       4.36       8.73       6.88
O       4.36      11.76       6.61
C       6.91       9.48       8.57
C       6.91      12.84       5.11
H       4.90       9.35       3.58
H       4.90       8.60       7.72
O       6.90       8.64       5.12
O       6.90      10.28       7.56
O       6.90      11.57       4.92
H       4.90      12.55       6.30
H       3.50       9.57       4.35
H       3.50       9.15       7.14
H       3.50      11.78       6.11
