14

C       4.12      -6.45      14.79
C       4.78     -10.09      14.06
Zn       3.70      -9.17      16.24
Zn       2.21      -8.18      14.18
O       2.20     -10.52      15.58
O       1.05      -9.71      13.79
O       2.55      -8.63      17.69
O       1.30      -7.74      16.01
O       4.29      -7.28      15.75
O       3.20      -6.53      13.89
O       5.04     -10.23      15.32
O       3.90      -9.31      13.60
C       1.33     -10.61      14.67
C       1.52      -7.99      17.23
