12

Ni      12.41       9.96      24.59
N      11.61      10.63      26.13
N      13.26       9.37      22.97
N      10.75       9.29      24.03
C      14.00      10.96      26.54
C      12.61      10.91      27.16
C      14.43       8.69      22.98
C      12.71       9.65      21.76
H      11.27      11.54      25.78
C      10.66       7.97      23.72
C       9.61      10.02      24.03
O      14.04      10.48      25.30
