18

Al       9.93       7.34       8.74
Al      13.26       7.34       8.74
H      11.61       8.20      10.26
H       8.25       6.50       7.21
O      13.75       9.19       8.47
O      11.60       7.93       9.33
O       8.27       6.76       8.15
C       8.24       9.78       8.66
C       8.32       7.15      11.15
C      11.63       4.91       8.83
C      11.56       7.54       6.34
O       9.32       9.16       8.88
O      13.87       7.41      10.55
O      12.77       5.50       9.02
O      10.42       7.66       6.90
O      10.54       5.53       8.59
O      12.65       7.28       6.93
O       9.45       7.03      10.58
