54

In      10.43       4.31       5.44
O       8.72       3.13      -2.59
O       8.72       5.45       2.59
In      10.43       4.28      -5.44
In      10.45       4.28       1.82
In      10.45       4.31      -1.82
In      10.41       4.28       9.06
In      10.41       4.31      12.70
O      12.14       5.45       8.29
O      12.14       3.13      13.47
H      12.18       5.13       3.64
O       9.09       2.76       4.67
H       8.68       5.13       7.24
O      11.77       2.76       6.21
H      12.18       3.46      -3.64
O       9.09       5.83      -4.67
O      11.77       5.83      -6.21
H       8.68       3.46      14.52
H       8.42       4.29      -0.00
O       9.51       2.42       2.45
O       9.51       6.17      -2.45
O      11.35       2.42       8.43
C       8.54       6.12       3.65
O      12.01       5.58      -0.92
C      12.32       6.12       7.23
O      12.01       3.00       0.92
C       8.54       2.47      -3.65
C      12.32       2.47      14.54
O       8.85       3.00       9.96
O      11.35       6.17      13.33
O      11.52       2.48      -1.24
O      11.52       6.10       1.24
O       8.85       5.58      11.81
O       9.34       6.10       9.64
O       9.34       2.48      12.12
O      11.55       4.38       3.63
O      11.55       4.20      -3.63
O       9.31       4.38       7.25
O       9.31       4.20      14.51
O       9.39       4.29      -0.00
O      11.47       4.29      10.88
C       8.97       6.44      -3.56
C       8.97       2.14       3.56
C      11.89       6.44      14.45
C      11.89       2.14       7.32
C      12.10       2.30      -0.13
C      12.10       6.28       0.13
C       8.75       2.30      11.01
C       8.75       6.28      10.76
H      12.44       4.29      10.88
O       9.10       5.94       4.78
O       9.10       2.64      -4.78
O      11.76       5.94       6.10
O      11.76       2.64      -6.10
