24

Zn       6.05       5.57       0.20
Zn       9.74       6.14      -0.20
N       3.15       4.09      -0.24
N      12.63       7.61       0.24
N       4.37       3.98       0.35
N      11.41       7.72      -0.35
N       4.80       6.36      -1.33
N      10.98       5.35       1.33
N       3.52       6.01      -1.63
N      12.26       5.69       1.63
O       9.09       7.00      -1.91
O       6.70       4.71       1.91
O       8.70       7.26       1.11
O       7.09       4.45      -1.11
O       6.59       7.53       0.35
O       9.20       4.17      -0.35
C       9.88       6.55      -2.83
C       5.90       5.15       2.83
C       7.71       7.98       0.75
C       8.08       3.73      -0.75
C       4.48       2.70       0.71
C      11.31       9.00      -0.71
C       5.26       7.01      -2.40
C      10.52       4.69       2.40
