14

Zn       8.58       0.69      14.74
Zn      10.26      -0.34      16.58
C      10.95      -1.21      14.15
C       7.49      -1.59      15.62
O       9.91      -0.55      13.80
C      10.60       2.38      15.01
O      11.35      -1.40      15.36
C       8.60       1.22      17.87
O       9.53       2.36      14.30
O      10.96       1.46      15.82
O       8.16       1.30      16.68
O       9.60       0.49      18.22
O       7.11      -0.61      14.89
O       8.63      -1.66      16.21
