14

C      -1.11       8.90      13.68
C      -4.48       9.81      13.96
Zn      -3.40       8.29      15.77
Zn      -1.81      10.48      15.70
C      -3.79      10.95      17.38
C      -1.38       8.01      17.51
O      -1.94       8.14      14.25
O      -0.71      10.04      14.16
O      -4.81       8.67      14.47
O      -3.53      10.53      14.40
O      -3.98       9.72      17.17
O      -2.80      11.64      16.91
O      -2.35       7.29      17.06
O      -1.05       9.16      17.08
