36

Zn       7.44      11.50       9.01
Zn      10.06      15.18       8.63
Zn      10.11      12.52      10.57
C      12.01      13.45       7.14
Zn       7.42      14.09       7.04
C       6.06      15.87       9.04
C      10.27       9.47      11.19
C       7.97      13.78      12.33
C       8.23      16.42       5.14
C      10.11      17.08       6.10
N       7.25      12.84      10.48
N      11.25      14.10      11.14
N       5.72      12.94       7.09
N      11.22      15.23      10.35
N       5.71      11.92       8.01
N       7.15      15.15       8.72
N       8.35      13.28      11.14
N       8.55      11.42       7.35
N      10.97      13.51       7.99
N       9.59      10.57      10.79
N       8.49      15.60       6.17
N       9.66      16.01       6.78
N       8.42      10.16      10.18
N       8.58      12.54       6.58
N      11.00      12.41       8.78
N       8.24      15.73       9.28
C       6.17      13.08      11.24
C       8.40       8.82      10.21
C       9.04      12.21       5.36
C       7.84      16.82       9.97
C      12.06      11.65       8.42
C      12.03      14.36      12.21
C       4.50      13.00       6.53
C      11.98      16.17      10.95
C       8.99      10.39       6.61
C       4.49      11.34       8.01
