13

C       8.95      34.19      16.83
C      12.20      35.72      15.97
N      12.01      32.58      17.59
C      12.39      31.41      18.13
C       8.26      32.67      15.43
C      12.39      31.53      13.27
N       9.38      33.23      15.94
Zn      11.34      32.90      15.69
C      12.39      35.26      13.86
N      12.07      34.69      15.05
C      12.16      33.50      18.60
C      12.09      30.06      14.83
N      11.90      31.39      14.51
