18

Mg       0.77      -0.79      18.80
C      -3.41       2.78      16.76
Mg       3.01      -0.23      17.04
C       1.07       2.09      17.68
Mg      -1.48       1.01      18.40
O      -2.35      -1.24      15.99
O      -0.78      -0.65      17.46
O       1.68      -1.73      17.24
O      -0.10       2.43      18.06
O       1.47       0.87      17.83
O      -2.82       1.59      17.01
C       1.09      -2.54      16.34
O       2.15      -1.20      20.20
O      -3.03      -0.22      18.96
C      -1.18      -1.39      16.47
C      -1.15      -0.25      21.15
O      -0.57       0.13      20.00
C       3.32      -0.70      20.09
