14

Zn       3.83       3.92       8.61
Zn       2.29       5.06       6.68
O       2.86       2.23       8.83
C       4.66       6.40       8.27
O       1.61       3.17       7.18
O       2.12       4.96       9.33
C       1.89       2.22       7.98
O       4.99       5.42       9.05
C       4.25       3.63       5.53
O       4.56       3.38       6.73
O       3.85       6.28       7.30
O       0.91       6.01       7.71
O       3.27       4.37       5.14
C       1.17       5.71       8.94
