18

O       5.69       2.06      11.32
C       7.75       3.19      14.37
Zn       5.21       2.03      13.24
C       3.58      -0.46      13.59
C       5.61       8.21      13.60
Zn       6.11       5.33      13.06
N       6.52       7.31      13.18
C       7.68       7.77      12.65
O       7.00       2.20      14.11
C       5.88      -0.78      13.61
C       3.67       4.28      14.47
O       7.52       4.41      14.08
O       4.44       5.24      14.12
C       6.67       5.15      10.48
O       3.86       3.04      14.23
O       5.56       5.14      11.15
N       4.82       0.07      13.59
C       4.59       2.16      10.64
