20

Zn       8.09       7.86       9.78
Zn       8.54      10.83       9.86
C       8.73       9.37      12.38
C       8.15       9.47       7.27
C       6.71       5.17       8.84
C       9.78      13.51       8.94
C       8.30       4.99      10.52
C       8.36      13.65      10.79
C      10.81       8.78       9.61
C       5.83       9.67      10.09
N       7.58       5.76       9.68
N       8.99      12.91       9.85
O       8.86       8.28      11.75
O       8.64      10.48       7.86
O       8.43      10.50      11.88
O       7.65       8.44       7.81
O      10.06       7.80       9.27
O       6.49      10.70       9.74
O      10.45       9.95       9.94
O       6.30       8.52      10.40
