36

Zn      10.90       6.27       6.32
Zn      10.90       3.35       8.24
Zn      13.63       4.45       9.69
Zn      13.63       7.16       7.90
C      13.13       6.26       4.19
C      10.59       9.44       6.31
C       8.82       6.84       8.35
C       8.82       4.99       9.57
C      12.77       6.39      11.68
C      12.77       8.23      10.46
C      10.59       2.09      11.15
C      13.13       1.40       7.40
C      14.93       2.61       7.80
C      14.93       6.15       5.47
C      12.57       9.96       7.17
C      12.57       2.67      11.98
C      16.65       7.11       8.75
C      16.65       5.25       9.97
C      10.02       2.32       5.52
C      10.02       4.16       4.30
N      12.73       6.06       5.45
N      15.40       5.48       9.54
N      15.40       6.63       8.79
N      10.10       3.37       6.36
N      10.10       4.52       5.60
N       9.95       6.16       8.09
N       9.95       5.02       8.84
N      12.73       2.63       7.71
N      12.63       6.04      10.38
N      12.63       7.18       9.63
N      12.53       8.63       6.99
N      12.53       3.04      10.68
N      11.30       2.68      10.17
N      11.30       8.31       6.46
N      13.84       3.38       7.98
N      13.84       6.01       6.25
