38

Cu       4.17      -1.94      14.12
Cu       4.08      -4.32      10.50
N       2.99      -5.55       9.41
Cu       4.50      -7.95       3.01
Cu       4.59      -5.57       6.63
N       5.76      -8.67       1.68
O       3.11      -3.56      14.08
O       2.96      -4.81      11.98
O       5.56      -6.33       3.05
O       5.71      -5.08       5.16
C       5.66       0.30      15.51
C       6.57      -0.49      13.52
C       6.36      -1.45      12.45
C       6.31      -2.56      10.69
C       6.39      -3.14       9.37
C       6.74      -3.63       7.33
C       2.06      -0.20      15.16
C       2.42      -1.73      16.61
C       3.00     -10.19       1.62
C       2.09      -9.41       3.62
C       2.30      -8.44       4.69
C       2.36      -7.33       6.44
C       2.27      -6.75       7.76
C       1.92      -6.26       9.80
C       6.60      -9.69       1.97
C       6.25      -8.17       0.52
S       2.21      -3.81      12.87
S       6.46      -6.08       4.26
N       5.62      -0.56      14.48
N       5.28      -2.26      12.55
N       5.24      -2.98      11.42
N       5.45      -4.02       9.03
N       5.68      -4.34       7.72
N       2.90      -1.22      15.45
N       3.04      -9.33       2.65
N       3.38      -7.63       4.58
N       3.42      -6.91       5.71
N       3.22      -5.87       8.10
