20

Zn       7.70      -2.78      18.47
C       6.19      -0.26      19.34
Zn       7.80      -1.82      21.17
C       9.31      -4.32      20.33
C       7.66      -0.30      23.78
C       9.81      -0.83      19.23
C       5.66      -3.73      20.39
N       7.59      -3.24      16.47
N       7.93      -1.48      23.20
O       9.00      -4.23      19.09
O       6.69      -0.22      20.52
O       9.27      -1.45      18.25
O       6.08      -2.94      21.29
O       6.48      -1.09      18.41
O       9.52      -0.96      20.46
O       6.08      -3.81      19.18
O       8.83      -3.62      21.28
C       7.87      -2.27      15.59
C       7.22      -4.45      16.01
C       8.24      -2.53      23.97
