18

Mg       2.11       0.33      17.64
Mg      -0.15      -1.03      18.87
Mg       4.37       0.72      19.43
O       5.24      -2.39      18.40
O       3.68      -0.81      18.27
O       1.20      -1.48      17.42
O       2.98       0.99      20.85
O       1.42       0.08      19.54
C       1.81       0.51      20.70
O       5.72      -0.32      20.55
O       0.72       1.42      16.69
O       5.94       0.74      18.13
O       3.46       1.81      17.97
C       6.29       0.02      21.71
C       4.03       2.65      17.10
C       4.07      -2.03      18.06
C      -0.46       1.53      17.18
C       1.77      -2.66      17.13
