66

Hf      15.49       2.17      24.64
Hf      15.47      -2.25      26.67
Hf      12.94      -0.10      25.49
Hf      18.02       0.00      25.82
Hf      15.35       1.03      27.95
Hf      15.65      -1.11      23.41
H      17.33       2.59      26.73
H      13.48      -1.04      28.33
H      17.59      -2.61      24.83
H      13.67       0.78      22.89
H      13.15       2.55      28.68
H      11.26      -0.30      23.40
H      13.70      -2.68      22.29
H      17.20       1.15      29.80
H      19.73       1.56      27.14
H      19.89      -0.12      23.98
H      18.42      -1.22      23.20
H      14.51       0.42      30.39
H      16.14      -3.68      28.84
H      14.96       2.86      21.96
H      15.14      -0.27      20.90
H      18.17       1.24      28.43
H      14.55      -3.78      28.68
H      11.04      -0.07      27.33
H      12.47       1.24      27.98
H      17.63      -0.98      21.75
H      12.87      -1.39      22.91
H      15.76       1.43      21.93
O      15.71       2.39      22.36
O      15.32       4.00      25.89
O      13.63       3.22      23.98
O      18.98       1.79      24.89
O      12.00       1.72      24.52
O      17.41       3.28      24.23
O      15.15       3.25      28.03
O      14.34       1.30      26.09
O      16.80       1.84      26.43
O      14.20       0.56      23.67
O      16.59       0.48      24.32
O      19.26      -0.78      24.30
O      13.19       1.58      28.66
O      16.48      -0.55      27.16
O      14.07      -0.78      27.60
O      14.47      -1.46      25.11
O      16.98      -1.89      25.06
O      11.62       0.60      26.94
O      11.98      -1.97      26.27
O      13.52      -3.41      27.07
O      15.82      -0.04      21.55
O      15.53      -4.09      25.43
O      11.90      -0.89      23.82
O      13.72      -1.70      22.32
O      17.66      -1.56      22.53
O      15.52      -3.34      23.29
O      15.30      -3.17      28.82
O      19.18       0.80      27.38
O      17.34      -3.30      27.36
O      18.94      -1.76      26.89
O      17.34       1.60      28.94
O      15.34       0.50      29.91
C      15.23       4.18      27.14
C      18.61       2.90      24.38
C      12.41       2.82      24.03
C      12.31      -3.05      26.83
C      15.53      -4.27      24.17
C      18.55      -2.86      27.37
