23

Zn     -11.89       9.10      10.37
Zn     -13.52       6.29      10.34
Zn     -10.32       6.34      10.38
Zn     -11.82       7.21       7.75
C      -9.50       5.44       7.69
O     -14.60       7.49      11.46
O     -13.34       9.38      11.67
O     -11.94       9.02       7.02
O     -12.11      10.35       8.86
O      -9.11       7.57      11.30
O     -10.19       9.58      11.24
O     -13.37       6.20       7.05
O     -14.54       5.49       8.87
O     -10.78       4.90      11.62
O     -13.05       4.86      11.63
O      -9.27       5.52       8.95
O     -10.32       6.16       7.03
O     -11.92       7.25       9.71
C     -14.28       8.59      12.03
C     -12.22      10.11       7.61
C      -9.16       8.84      11.44
C     -14.24       5.48       7.63
C     -11.91       4.54      12.08
