16

Cu       0.34       0.01      11.14
I      -1.91       1.36      11.86
I       1.83      -1.36      12.87
Cu      -0.41      -0.01      13.59
C      -1.47      -1.01       9.10
C       1.40       1.01      15.62
C       0.00      -2.62       9.87
C      -0.08       2.62      14.86
N       1.55       1.37      10.34
N      -1.63      -1.37      14.39
N      -0.43      -1.34       9.90
C       1.17       2.65      10.17
N       0.36       1.34      14.83
C      -1.25      -2.65      14.56
C       2.71       0.97       9.77
C      -2.79      -0.97      14.96
