11

Cu      -0.00       9.23       5.33
C      -0.63       9.92       8.16
C       1.54      10.31       7.49
C       1.96       7.22       5.57
O       1.82       8.50       5.41
C       0.62       8.54       2.50
C      -1.55       8.15       3.17
C      -1.96      11.24       5.10
N       0.30       9.92       7.18
N      -0.30       8.55       3.48
O      -1.82       9.96       5.26
