23

Zn       7.72      10.00       8.39
Zn       9.91       7.69       8.40
Zn       7.57       7.67      10.59
Zn       9.88       9.83      10.80
C      12.36       8.60       9.71
C       5.17       8.86       9.34
C       8.92       8.97       5.93
C       8.59       8.67      13.17
C       8.70       5.19       9.44
C       8.85      12.36       9.75
O       8.77       8.80       9.54
O       9.55       5.77       8.68
O       9.80      11.74      10.32
O       7.83       5.75      10.18
O       7.94      11.86       9.00
O       8.28       9.91       6.51
O       9.36       9.55      12.67
O      11.82       8.02       8.71
O       5.70       8.13      10.25
O      11.75       9.21      10.65
O       5.80       9.58       8.50
O       9.48       7.98       6.51
O       7.91       7.80      12.51
