36

Zn       1.54       0.51      10.17
Zn       5.02      -0.02      11.00
Zn      -1.94      -0.48      10.13
C       2.96      -2.14      10.15
C      -0.52       0.83      12.43
C       6.44       1.32       8.71
H       2.18      -0.05       7.76
H       5.66       2.35      11.72
H      -1.30      -2.28      11.82
N       1.15       2.58      10.07
N       4.63      -0.97      12.84
H       3.60       0.43       8.43
N      -2.33      -1.59       8.38
H       7.08       1.52      11.80
H       0.12      -1.94      11.06
O       2.65       0.65       8.31
O       6.13       1.52      12.05
O      -0.83      -2.16      10.94
O       3.35       1.35      11.01
O       6.83      -1.18      11.30
O      -0.13      -0.16       8.98
O       5.40       0.67       9.08
O      -1.57       0.84      11.68
O       1.91      -1.50      10.53
O      -2.85       1.19       9.23
O       0.63       0.45      12.06
O       4.11      -1.62      10.01
C       3.46       2.63      10.86
C       6.93      -1.68      12.49
C      -0.03      -0.94       7.94
C       2.24       3.34      10.32
C       5.72      -1.56      13.38
C      -1.24      -1.76       7.60
C      -0.00       3.15       9.72
C       3.48      -0.95      13.51
C      -3.48      -2.19       8.06
