23

Zn      20.11       9.73       0.83
Zn      20.74      11.24      -1.92
Zn      18.86      12.61       0.25
Zn      21.99      12.30       0.83
O      20.43      11.47       0.00
O      20.16       8.29      -0.50
C      20.43       8.30      -1.75
C      17.40      10.51       1.74
O      19.41      12.20      -2.98
O      18.32       9.64       1.62
C      22.44      10.00       2.67
O      20.69       9.34      -2.42
C      23.45      12.43      -1.74
O      17.47      11.70       1.30
O      21.44       9.35       2.21
O      22.53      11.86      -2.42
O      18.11      13.18      -1.46
O      19.32      14.21       1.30
O      22.74      11.15       2.22
O      21.53      14.03       1.62
O      23.38      12.69      -0.50
C      18.41      12.94      -2.67
C      20.43      14.64       1.74
