9

Zn      -2.01       4.22       8.18
C      -3.55       2.63      10.19
C      -1.31       2.03      10.15
C       0.91       3.88       7.72
C       0.51       5.62       9.20
N       0.03       4.63       8.42
I      -2.20       3.06       5.91
I      -3.45       6.19       8.98
N      -2.31       2.81       9.69
