32

Sm       1.96      -3.33       7.08
Sm      -2.30      -2.95       5.93
H       4.84      -5.19       8.45
H       0.58      -1.09       4.56
H       3.79      -5.16      11.08
H      -0.47      -1.12       1.93
C      -0.77      -5.51       7.51
C       3.49      -0.77       5.50
C      -0.29       0.16       7.92
C       3.97      -6.44       5.09
C       0.07      -1.28       7.79
C       4.33      -5.00       5.21
C       0.49      -4.42       4.29
C       4.74      -1.85       8.72
C       4.05      -5.11       9.22
C      -0.21      -1.17       3.79
O       0.37      -4.94       7.60
O       4.62      -1.34       5.41
O      -1.86      -4.92       7.22
O       2.40      -1.36       5.79
O      -0.26      -1.93       6.72
O       4.00      -4.35       6.29
O       0.80      -1.83       8.67
O      -3.45      -4.45       4.34
O       1.59      -4.19       4.89
O      -2.67      -2.09       8.12
O      -0.65      -4.05       4.72
O       3.60      -2.24       8.30
O       2.87      -4.86       9.00
O      -1.39      -1.43       4.01
O       4.53      -5.31      10.45
O       0.27      -0.97       2.56
