23

Zn      18.39       7.26       8.83
Zn      16.84       4.42       8.65
Zn      18.59       5.47       6.17
Zn      20.01       4.49       8.90
C      15.78       6.74      10.12
C      16.09       3.94       5.85
C      18.53       8.41       6.14
C      21.15       4.04       6.24
C      20.80       6.90      10.43
C      18.39       2.39      10.12
O      18.45       5.42       8.13
O      16.80       7.49       9.97
O      15.93       3.66       7.08
O      18.87       7.31       5.58
O      15.59       5.58       9.64
O      18.26       8.59       7.37
O      16.97       4.73       5.37
O      20.13       4.41       5.56
O      20.77       5.63      10.30
O      21.33       4.15       7.49
O      20.00       7.72       9.86
O      17.26       2.91       9.83
O      19.54       2.81       9.78
