10

Al       4.44       4.54       7.93
O       3.30       5.08       6.46
C       2.27       4.63       5.85
C       6.73       6.26       9.05
C       6.53       2.68       8.88
O       5.52       3.46       9.01
O       5.62       4.18       6.39
O       5.67       6.10       8.38
O       3.16       2.90       8.21
O       3.30       5.45       9.14
