15

Mg      10.69      14.37       9.35
O      12.35      15.47       9.92
O       8.89      13.61       8.58
C       8.48      14.18       7.50
O      11.83      12.77       8.71
O      10.33      13.43      11.15
C       9.48      15.14       6.86
C      12.10      16.53      10.61
H       9.44      13.55      11.62
H      10.87      12.80      11.65
O       9.80      16.06      10.19
H      12.36      12.87       7.90
O      10.60      15.24       7.44
H      12.44      12.40       9.43
C      10.61      16.84      10.78
