20

Zn       6.72       5.72       5.81
Zn       3.85       5.82       5.79
C       5.35       3.20       5.52
C       5.14       5.69       8.37
C       5.25       8.33       6.00
C       5.31       5.91       3.24
C       9.64       5.08       6.90
C      11.07       4.96       6.80
C      11.06       6.26       4.89
C       9.66       6.35       4.99
N      11.75       5.59       5.80
N       8.94       5.79       5.95
O       6.46       3.78       5.26
O       4.30       3.78       5.92
O       6.17       5.22       7.78
O       4.05       6.04       7.81
O       6.23       7.59       6.35
O       4.10       7.90       5.66
O       6.41       6.15       3.82
O       4.16       5.75       3.79
