23

Zn       9.24      15.61       0.78
Zn      10.88      18.33       0.58
Zn       7.66      18.39       0.61
Zn       9.24      17.29      -1.97
C      11.80      16.02       2.17
C       9.28      20.46       1.92
C       6.68      16.07       2.17
C       6.69      18.78      -2.15
C       9.25      14.34      -1.91
C      11.80      18.75      -2.19
O       9.25      17.41      -0.01
O      10.82      15.26       1.88
O      10.40      19.95       1.60
O       6.54      17.28       1.78
O      11.98      17.23       1.76
O       7.65      15.29       1.88
O       8.11      20.01       1.64
O       6.54      18.95      -0.89
O       9.24      15.42      -2.61
O       7.65      18.16      -2.72
O       9.25      14.26      -0.64
O      11.98      18.92      -0.93
O      10.82      18.15      -2.75
