35

Zn       0.99      -6.28      13.72
N      -0.88      -7.05      13.90
Zn       0.59      -9.04      15.45
N       2.69      -4.43      15.14
N       0.57      -7.72      16.96
N       1.47      -5.06      15.28
N       1.70      -7.42      17.66
N      -1.05      -8.24      14.57
N       1.92      -5.13      12.38
Zn       3.39      -8.13      16.99
N       4.72      -5.78      16.84
Zn       4.22      -5.52      14.62
N       3.05      -9.85      16.26
N       1.61      -9.15      13.72
N       5.81      -6.44      14.06
N       5.93      -7.77      14.39
N       1.90      -7.98      13.09
N       3.27      -5.30      12.50
N       1.81     -10.46      16.28
N       4.82      -6.97      17.52
C      -1.86      -6.94      12.99
C       2.22      -8.26      11.81
C       3.86      -4.42      11.67
C       5.15      -6.71      18.81
C       2.03     -11.78      16.15
C      -0.48      -7.54      17.79
C       2.53      -3.10      15.24
C       1.37      -7.06      18.91
C       1.68      -4.16      11.48
C       0.55      -4.09      15.52
C       5.00      -4.80      17.71
C      -2.12      -8.85      14.04
C       4.02     -10.78      16.08
C       1.74     -10.16      12.84
C       6.71      -6.12      13.10
