66

Zr       0.34      18.45       1.46
Zr       0.31      22.43      -1.29
Zr      -1.35      21.52       1.68
Zr       2.10      19.40      -1.46
Zr      -1.54      19.39      -1.37
Zr       2.30      21.45       1.45
H       0.21      17.23      -1.06
H      -2.45      22.01      -1.18
H       3.11      22.02      -1.27
H       0.62      20.40       3.54
H      -4.01      18.85      -0.18
H      -1.16      22.31       4.25
H       2.22      22.62       3.93
H      -1.52      18.07      -3.70
H       1.88      17.10      -2.97
H       4.78      19.74      -2.11
H       4.49      20.46      -0.12
H      -2.12      20.42      -3.76
H      -1.14      24.32      -2.74
H       2.14      17.03       3.16
H       3.16      20.08       3.64
H       0.47      17.96      -3.17
H      -0.20      23.51      -3.75
H      -3.92      22.18       1.26
H      -3.67      20.36       0.30
H       4.80      20.62       1.48
H       0.67      22.83       3.38
H       0.90      17.47       4.08
C      -1.97      16.51       0.32
C       2.59      16.50       0.08
O       1.55      17.78       3.40
O      -0.96      16.67       1.07
O      -1.06      18.21       3.31
C      -1.81      19.07       3.87
O      -1.98      20.26       3.46
O       1.77      16.72       1.03
C      -1.76      24.48       0.30
O      -1.12      19.64       0.78
O       0.28      18.14      -0.74
O       0.64      20.35       2.58
O       1.92      19.55       0.60
C       2.55      24.35       0.01
O      -3.69      19.71      -0.51
O       0.28      20.43      -1.79
O      -1.67      21.62      -0.75
O       0.42      22.14       0.72
O       2.35      21.57      -0.87
O      -3.42      21.37       1.42
O      -1.90      23.68       1.27
O      -1.06      24.24      -0.73
O       4.16      19.60      -1.38
O       1.67      24.17      -0.89
O      -0.78      22.61       3.41
O       3.46      20.75       3.00
O       1.70      22.87       3.15
O       4.47      21.10       0.69
O      -0.91      23.43      -3.08
O       1.55      18.00      -3.13
O       1.37      22.49      -3.36
O       2.54      20.55      -3.48
O      -0.93      18.00      -2.94
O      -2.56      20.18      -2.93
O       2.96      23.53       0.88
C       2.00      21.57      -3.98
O       2.87      17.27      -0.88
O      -2.45      17.38      -0.47
