54

Zr      15.96      13.39       2.63
Zr      13.98      12.40      -0.14
Zr      16.39      16.59       1.18
Zr      13.13      15.30       1.71
Zr      17.23      13.70      -0.68
Zr      14.39      15.62      -1.58
H      13.23      12.61       2.60
H      18.38      14.62       1.72
H      13.94      17.68       0.34
H      15.21      13.14      -2.61
C      17.72      15.65       4.04
C      14.72      10.46       2.44
C      13.49      14.19       4.68
C      18.68      11.90       1.53
C      12.51      13.40      -2.90
C      15.81      18.47      -1.47
C      11.07      12.76       1.12
C      16.16      10.83      -1.87
C      19.23      16.29      -0.24
C      14.26      18.08       3.04
C      11.59      16.97      -0.53
C      16.94      14.97      -3.59
O      17.53      16.56       3.18
O      14.17      10.57       1.30
O      14.62      13.63       4.53
O      17.89      12.13       2.49
O      18.66      12.43       0.36
O      12.83      14.84       3.79
O      15.42      11.34       3.04
O      17.21      14.48       4.05
O      15.85      12.84       0.62
O      15.16      15.23       2.16
O      13.79      13.14       2.01
O      17.46      14.58       1.40
O      12.73      12.47      -2.06
O      16.34      18.36      -0.33
O      11.23      13.92       1.62
O      17.12      11.65      -1.72
O      19.07      15.13      -0.73
O      13.30      17.28       2.87
O      12.39      16.75      -1.49
O      15.80      15.51      -3.44
O      11.64      16.47       0.65
O      17.56      14.23      -2.74
O      11.93      12.10       0.44
O      15.40      18.06       2.44
O      18.42      16.92       0.54
O      15.01      10.87      -1.31
O      13.05      14.56      -2.93
O      15.00      17.64      -2.03
O      16.21      15.50      -0.58
O      13.51      14.43      -0.13
O      14.27      16.76       0.39
O      15.20      13.50      -1.72
