31

Ni       8.24      12.48      13.63
Ni      11.04      11.50      12.44
Ni       9.65       9.87      14.82
O       8.24      12.87      11.64
O       9.85      11.53      10.76
O      11.41       9.56      12.15
O       6.81      11.06      13.36
C      13.73      11.05      11.27
O       9.41      14.14      13.88
O      11.04      13.50      12.42
O       9.86       8.43      13.37
O       7.86      12.42      15.62
O      12.51      11.50      13.88
O       7.68       9.56      14.83
O       9.70      11.35      13.71
O       9.42      11.02      16.52
C       6.78      14.97      12.97
O      11.63       9.80      15.11
C       8.80       8.26      17.16
C       8.96      12.43      10.69
C      10.88       8.50      12.62
C       6.72      10.14      14.23
C      10.31      14.36      13.02
C       8.40      11.78      16.58
C      12.59      10.48      14.64
C       5.55      13.54      14.29
N       6.68      13.81      13.63
N      12.59      11.74      11.12
N       9.65       8.29      16.13
C      12.49      12.59      10.09
C      10.52       7.28      15.98
