18

Al       5.21       5.17       6.74
O       4.73       4.04       8.21
Al       1.91       5.10       6.77
O       4.65       3.87       5.41
O       1.34       6.48       5.55
H       3.49       6.77       6.16
H       6.85       3.70       5.89
O       1.39       6.11       8.31
O       3.55       5.98       6.73
C       3.62       3.56       8.59
O       6.87       4.30       6.65
C       3.53       3.57       4.87
C       6.89       6.80       4.99
C       6.92       6.59       8.67
O       2.40       3.98       5.28
O       2.51       3.76       7.98
O       5.81       6.42       8.07
O       5.73       6.38       5.31
