14

Zn       3.24       0.19       8.56
Zn       5.90      -0.09       8.47
O       3.01      -1.13      10.06
O       5.25      -1.42       9.78
O       5.82      -1.38       6.93
O       3.57      -1.26       7.19
O       5.47       1.39       7.23
O       3.21       1.53       7.08
O       4.09       1.46       9.90
O       6.31       1.18      10.02
C       4.14      -1.64      10.39
C       4.61      -1.63       6.57
C       4.40       1.79       6.67
C       5.20       1.66      10.48
