24

Al       5.24      10.62      27.30
Al       3.44       7.97      27.24
Al       2.05      10.61      27.32
C       5.50       8.29      29.13
C       1.33       8.42      29.05
C       3.42      12.02      29.29
C       5.40       8.30      25.35
C       1.29       8.64      25.41
C       3.43      12.20      25.48
O       1.02       9.54      28.52
O       2.26      11.76      28.80
O       4.52      11.76      25.95
O       5.79       9.35      25.93
O       4.55       7.45      25.85
O       2.02       7.75      25.97
O       1.13       9.83      25.87
O       2.31      12.04      26.15
O       3.56       9.72      27.33
H       7.24      11.72      27.96
O       4.54      11.78      28.78
O       5.84       9.44      28.72
O       4.72       7.47      28.52
O       2.17       7.57      28.58
O       6.76      11.51      27.15
