10

Al       0.35      34.72      12.03
O      -0.80      33.88      10.70
O      -0.80      33.99      13.42
O      -0.80      36.30      11.97
O       1.51      33.32      11.43
O       1.51      35.95      11.11
O       1.51      34.90      13.55
C      -1.83      34.39      14.05
C      -1.83      36.64      11.30
C      -1.83      33.14      10.73
