10

Al       0.00      20.14      17.44
C       1.99      21.92      16.43
C       1.99      20.13      19.49
C       1.99      18.38      16.41
O       1.06      18.55      17.26
O       1.06      21.10      16.16
O       1.06      20.77      18.91
O      -1.06      19.20      16.15
O      -1.06      19.49      18.90
O      -1.06      21.73      17.27
