10

Al       4.46       7.09      12.27
C       2.22       7.21      10.23
C       2.22       5.26      13.19
C       2.22       8.80      13.40
O       3.29       8.14      13.39
O       3.30       7.53      10.80
O       3.30       5.59      12.62
O       5.61       8.53      12.83
O       5.62       5.89      13.24
O       5.62       6.85      10.75
