11

Zn       7.78       7.77       6.08
N       6.09       8.92       6.10
C       9.80       9.58       6.61
N       7.86       6.93       7.95
C       4.93       8.57       5.51
C       7.35       5.75       8.35
C       8.42       7.46       9.06
C       6.81       5.41       4.83
O       7.75       6.28       4.77
C       6.11      10.03       6.86
O       9.51       8.65       5.74
