23

Zn      16.17      16.30      22.45
Zn      17.71      15.38      25.11
Zn      15.97      18.08      25.11
Zn      14.51      15.25      24.97
O      16.09      16.26      24.42
O      17.82      15.48      21.78
C      18.78      14.94      22.40
O      16.00      19.43      23.69
C      16.08      19.26      22.42
O      16.15      18.15      21.80
C      13.66      14.73      22.16
O      18.69      16.59      26.30
O      18.91      14.80      23.67
C      18.49      17.79      26.68
O      14.65      15.35      21.66
O      17.24      13.77      26.14
C      16.11      13.25      26.41
O      17.48      18.52      26.32
O      14.33      18.38      26.16
O      13.45      14.60      23.44
O      13.28      16.35      26.04
O      14.95      13.67      26.04
C      13.37      17.57      26.41
