18

Al       9.84       5.01       7.40
Al      13.15       4.98       7.39
H      11.46       3.48       6.49
H       8.14       6.59       8.06
O      11.48       4.39       6.84
C       8.24       2.59       7.49
C       8.14       5.12       4.98
C      11.46       7.41       7.30
C      11.56       4.86       9.81
O       9.33       3.18       7.73
O      13.62       5.18       5.54
O      12.57       6.81       7.50
O      10.45       5.11       9.23
O      10.34       6.85       7.11
O      12.69       4.72       9.24
O      13.74       3.15       7.29
O       9.26       4.96       5.57
O       8.18       5.62       7.95
