24

Cd       8.92      18.42      17.93
Cd       5.79      18.61      20.24
C       8.85      15.39      18.99
C       5.87      21.64      19.18
C      10.09      16.73      20.41
C       4.63      20.30      17.76
N       8.11      20.13      16.57
N       6.60      16.90      21.60
N       9.37      16.59      19.28
N       5.34      20.44      18.89
O       8.13      19.38      20.11
O       6.58      17.65      18.06
O      10.04      20.12      19.23
O       4.67      16.91      18.94
O       9.32      17.12      16.16
O       5.40      19.91      22.01
C       9.13      20.17      20.11
C       5.58      16.86      18.06
C       7.21      19.89      15.60
C       7.50      17.14      22.57
C       8.73      21.33      16.59
C       5.99      15.70      21.58
C      10.41      17.35      15.50
C       4.30      19.68      22.67
