17

La       4.27      -0.37      13.67
C       5.24      -3.23      13.82
O       6.69      -0.20      12.45
C       4.16      -2.00      16.84
O       4.70       2.05      12.74
O       4.01       2.04      14.90
O       1.95       1.07      13.12
O       1.77      -0.99      14.03
C       4.27       2.60      13.79
C       2.68      -0.78      10.51
C       1.29       0.08      13.52
O       6.58       0.48      14.61
O       3.63      -0.75      11.36
C       7.20       0.15      13.55
O       6.11      -2.40      14.23
O       4.11      -2.95      13.31
O       4.02      -1.06      15.98
