66

Ni       3.09       8.26       0.35
Ni       2.61      12.96       5.95
Ni       8.95       6.10      -0.35
O       0.86      12.95       5.73
O       9.00       7.45       1.13
Ni       6.02       7.18      -0.00
O       8.88       7.52      -1.71
O       6.82       7.72       1.75
O       7.20       5.88      -0.40
O       7.11       8.67      -0.84
Ni      -0.32      13.12       7.07
O       0.48      14.75       7.91
Ni      -3.24      13.28       8.20
O       9.28       4.61       0.89
O      -1.11      11.49       6.24
O       0.77      12.03       8.40
O      -1.49      13.29       8.42
O      -1.41      14.20       5.75
O      -3.29      12.06       6.61
O      -3.17      14.86       7.03
O      -3.57      11.80       9.45
C       0.45       7.16       1.22
C       0.52       7.88      -0.96
C       3.98       6.50      -1.89
C       3.92       5.80       1.58
C       2.16      15.50       4.70
C       2.86      11.06       1.86
C       2.87       9.31       3.33
C       5.25      11.92       6.88
C       5.19      14.19       6.55
C       1.73      14.87       8.07
C       1.78      11.32       8.16
C       3.55       9.94      -1.94
C       2.85      11.96       2.93
C       2.83      10.21       4.40
C      -0.67       7.20      -1.22
C      -0.73       6.48       0.96
C       8.07       7.86       1.89
C       8.12       8.56      -1.58
C      -2.79      10.73       9.45
C       9.19       3.30      -1.86
C       9.17       5.05      -3.33
C       6.37      14.32       7.27
C       6.44      12.05       7.60
C      -2.36      11.37       6.07
C      -2.41      14.92       5.98
C       8.50       4.42       1.93
C       9.19       2.40      -2.93
C       9.21       4.16      -4.40
N       2.87       9.74       2.06
N       1.09       7.86       0.26
N       2.83      11.53       4.20
N       4.62      12.98       6.37
N       9.17       4.62      -2.06
N      -1.30       6.50      -0.26
N       9.21       2.83      -4.20
N       7.01      13.25       7.78
O       3.05       6.91      -1.13
O       3.17       6.84       1.71
O       2.94      14.44       4.70
O       5.23       6.64      -1.75
O       4.85       8.48       0.40
O       4.93       5.69       0.84
O       2.66      14.18       7.54
O       2.54      11.37       7.12
O       2.76       9.75      -0.89
