14

Zn       5.72      10.92      17.83
Zn       3.12      10.88      17.79
C       4.42       8.36      17.85
C       4.40      10.94      20.40
C       4.37      13.43      17.79
O       5.52       8.94      17.58
C       4.51      10.86      15.23
O       5.49      10.58      19.85
O       3.32       8.95      18.14
O       5.48      12.88      18.12
O       5.58      11.23      15.81
O       3.34      11.29      19.81
O       3.32      12.80      17.42
O       3.44      10.47      15.78
