18

Al       1.68       9.60      18.82
O       2.20       8.27      17.53
O      -1.11      10.93      20.09
Al       5.00       9.57      18.84
O       2.20       8.46      20.28
C       3.33       7.81      17.19
O       5.51      10.66      17.34
C       0.02      11.35      20.49
O       1.15      10.96      20.07
C       3.34       8.17      20.79
O       4.46       8.17      17.64
C      -0.01      10.99      16.86
O       3.35      10.39      18.77
O       0.02       8.78      18.89
H       3.36      11.34      18.96
H       0.03       7.83      18.74
O       4.48       8.49      20.34
O       1.14      10.72      17.36
