18

Mg       2.03       1.04      18.16
Mg      -0.26      -0.35      16.99
Mg       4.31      -0.67      18.78
O      -1.12      -0.92      20.19
O       0.50      -0.16      18.85
O       2.94       0.34      19.85
C       0.06       2.61      16.36
C       0.07      -0.49      20.03
C       4.64       2.03      17.37
O       3.45       2.38      17.67
O      -1.79       0.84      17.67
O       0.65       1.47      16.74
C       2.34       0.10      21.03
O       1.16      -1.45      16.06
O       2.78      -0.67      17.39
O      -1.64      -1.79      17.32
C      -2.23      -2.69      16.52
C       2.35      -1.53      16.52
