14

Zn      25.03      -0.00      25.24
C      23.76       1.84      27.08
C      23.76      -1.84      27.08
C      23.76      -1.84      23.41
C      23.75       1.84      23.41
O      24.89      -1.42      23.82
O      24.89      -1.43      26.67
O      24.89       1.42      26.67
O      24.89       1.43      23.82
O      22.62       1.42      26.67
Zn      22.48      -0.00      25.24
O      22.62      -1.42      26.67
O      22.62      -1.43      23.82
O      22.62       1.42      23.82
