23

Zn       4.64      15.73       5.46
O       4.65      12.98       3.59
O       2.01      12.52       7.56
Zn       4.61      12.54       5.50
Zn       6.25      14.10       7.79
O       6.29      16.81       5.77
Zn       3.07      14.14       7.77
O       3.02      11.46       5.81
O       7.27      15.82       7.59
O       4.69      14.15       6.63
O       3.58      14.32       9.67
O       4.67      15.27       3.55
O       1.96      15.69       7.34
O       6.21      11.44       5.90
O       3.12      16.92       5.80
O       7.49      12.63       7.37
O       5.84      14.01       9.70
C       2.09      11.59       6.68
C       7.17      16.72       6.68
C       4.71      14.19      10.26
C       4.66      14.11       3.00
C       2.13      16.71       6.59
C       7.23      11.63       6.62
