57

Hf       2.45       0.33       3.24
O       1.28      -1.12       2.03
O       1.92       2.60       3.38
Hf      -0.35       2.47       3.88
Hf      -0.79      -0.79       2.71
Hf       1.33      -0.11      -0.03
Hf       1.81       3.14       1.10
O      -2.06       3.79       3.58
O       0.27       4.47       4.67
O       3.16       2.84      -0.59
O       0.92       4.54      -0.41
O      -0.13      -0.18      -1.84
O       0.56       2.72       5.98
O       2.77       0.77      -1.45
O       0.72      -2.14      -0.35
O      -1.86       1.56       5.26
O      -2.81      -1.10       2.08
O      -2.88       3.41       1.49
H       2.48       3.16       3.95
H       1.55      -2.05       2.02
O      -0.07       2.91       1.88
O      -1.79       1.27       2.68
O       0.63       1.96      -0.36
O      -0.50       0.16       0.90
H      -2.73       1.26       2.94
H       0.63       2.23      -1.29
Hf      -1.44       1.98       0.62
O      -1.92      -0.60       4.53
O      -0.86      -2.59       1.23
O      -1.24       3.81      -0.47
O      -3.24       0.50       0.51
C       3.86      -1.64       1.15
C       4.32       1.37       4.78
C       3.30       5.03       2.16
C       1.18      -2.19       4.79
C      -2.85       4.04       2.60
C      -1.31       0.28      -1.93
C       0.67       3.97       5.78
C      -2.34       0.37       5.25
C      -0.38      -2.66       0.05
C       3.41       1.88      -1.39
C      -0.26       4.53      -0.89
C      -3.32      -0.69       0.97
C       5.22       1.98       5.73
C       1.28       4.91       6.71
O      -1.73       1.38      -1.42
C       4.23       5.95       2.80
O       3.16      -1.22       0.17
O       3.19       0.96       5.26
O       3.81       3.92       1.76
O       2.15      -1.38       4.56
O       0.07      -2.23       4.15
O       2.05       5.23       2.04
O       4.54       1.25       3.53
O       3.86      -1.17       2.34
O       0.45       0.59       3.66
O       2.25       1.13       1.37
