15

Cu       2.61      13.39      22.81
Cu       3.79      12.22      20.11
Cu       1.21      10.90      21.47
N       4.58      13.72      20.85
N       4.10      14.18      22.06
N       1.13      12.66      23.62
N       0.56      11.52      23.08
N       1.83      10.25      19.86
N       3.01      10.73      19.35
C       4.87      15.21      22.44
C       5.62      14.48      20.49
C      -0.46      11.14      23.88
C       0.45      12.98      24.73
C       3.30      10.04      18.23
C       1.39       9.27      19.05
