15

Cu       6.88       6.89       4.72
Cu       6.91       4.65       6.96
Cu       4.64       6.91       6.96
N       5.60       4.63       8.26
N       8.19       5.59       4.68
C       9.18       5.33       3.81
C       9.20       3.76       5.38
C       3.75       9.20       5.37
C       5.33       9.18       3.80
C       5.34       3.77       9.26
N       8.20       4.62       5.65
C       3.76       5.34       9.26
N       5.58       8.19       4.68
N       4.61       8.20       5.65
N       4.63       5.60       8.26
