15

N      13.68      12.63      24.93
N      14.25      11.51      25.49
N      12.92      10.24      28.69
N      11.81      10.82      29.26
Cu      12.21      13.40      25.72
Cu      11.03      12.27      28.44
Cu      13.57      10.88      27.09
C       9.97      15.25      26.08
C       9.16      14.48      27.99
C      15.28      11.14      24.71
C      14.36      12.94      23.82
C      11.54      10.15      30.40
C      13.32       9.22      29.47
N      10.22      13.73      27.65
N      10.73      14.21      26.46
