23

Zn      22.25       7.85       0.56
Zn      23.83      10.61       0.78
Zn      25.51       7.92       0.72
Zn      23.93       8.83      -1.94
C      21.23      10.14       2.03
C      26.35      10.29       2.23
C      23.87       5.86       2.00
C      26.53       7.46      -1.99
C      21.44       7.31      -2.19
C      23.86      11.73      -1.92
O      23.90       8.79       0.03
O      20.95       9.05       1.42
O      25.47      11.06       1.71
O      25.02       6.17       1.52
O      22.36      10.72       2.08
O      22.81       6.55       1.95
O      26.46       9.03       2.02
O      26.79       7.54      -0.74
O      22.30       8.09      -2.72
O      25.42       7.69      -2.55
O      21.35       7.02      -0.95
O      23.41      11.80      -0.74
O      24.22      10.68      -2.56
