14

Zn       9.72       1.57      15.58
O       9.79      -1.04      17.38
O       9.89       1.37      18.90
Zn      11.09       0.51      17.52
O      12.21       2.19      17.44
O       8.59      -0.11      15.66
C      11.84      -0.01      14.68
C       8.84      -1.02      16.52
C      11.96       3.11      16.58
C       8.96       2.10      18.42
O      10.91       0.72      14.20
O       8.72       2.30      17.18
O      12.08      -0.21      15.92
O      11.01       3.13      15.73
