24

Cd      10.86      13.96      12.07
O       9.37      12.27      11.29
O      15.31      17.38      15.56
Cd      13.82      15.69      14.78
C      13.02      11.85      10.95
C      11.65      17.80      15.90
C      13.03      11.79      13.26
C      11.65      17.86      13.59
C       9.25      16.54      10.84
C      15.43      13.11      16.01
C       8.66      16.11      13.03
C      16.02      13.54      13.82
C      13.71      15.50      11.57
C      10.97      14.15      15.28
C      14.99      17.24      16.79
C       9.69      12.41      10.06
N      12.55      12.32      12.12
N      12.13      17.33      14.73
N       9.41      15.80      11.95
N      15.27      13.85      14.90
O      12.43      15.56      11.56
O      12.24      14.09      15.29
O      14.43      15.81      12.58
O      10.24      13.84      14.27
