10

Al       1.17      15.29       8.86
C       3.16      15.30      10.92
O       2.23      16.23       7.56
O       2.23      15.94      10.32
O       2.23      13.71       8.70
O       0.12      16.87       8.66
O       0.12      14.30       7.57
O       0.12      14.66      10.33
C       3.16      17.06       7.81
C       3.15      13.50       7.84
