20

Zn       5.54      10.87       0.10
Zn       8.34      10.86      -0.04
O       5.59       9.55      -1.50
O       7.85       9.37      -1.34
O       7.98      12.30      -1.45
O       5.72      12.37      -1.28
O       8.25      12.35       1.44
O       5.98      12.24       1.57
O       5.97       9.34       1.35
O       8.23       9.50       1.53
C       6.72       9.06      -1.84
C       6.83      12.74      -1.78
C       7.12      12.69       1.90
C       7.09       9.01       1.85
C       2.73      10.96       1.28
C      11.17      10.85      -1.18
C      11.07      10.90       1.10
C       2.82      10.88      -1.01
N       3.46      10.91       0.18
N      10.42      10.86      -0.08
