23

Zn      19.86       9.55       0.77
Zn      20.55      11.00      -1.91
Zn      18.68      12.52       0.30
O      19.85       8.08      -0.53
O      20.21      11.32      -0.00
Zn      21.74      12.23       0.84
O      18.17       9.56       1.73
O      19.00      11.73      -2.91
O      20.56       9.12      -2.43
O      17.22      11.54       1.13
O      18.19      13.30      -1.47
O      21.42       9.10       1.93
O      22.24      11.81      -2.42
O      19.07      14.10       1.38
O      22.22      11.17       2.46
O      21.34      13.99       1.58
O      23.20      12.39      -0.43
C      20.21       8.09      -1.76
C      18.29      12.74      -2.61
C      17.21      10.40       1.70
C      20.21      14.56       1.76
C      22.13       9.91       2.61
C      23.20      12.25      -1.70
