23

O      17.35      11.64       1.27
O      20.58       9.28      -2.44
O      18.23       9.58       1.66
O      18.03      13.11      -1.44
O      19.23      14.20       1.27
Zn      19.99       9.67       0.81
Zn      18.77      12.57       0.29
O      21.33       9.30       2.20
O      21.45      13.99       1.66
Zn      21.91      12.28       0.81
Zn      20.68      11.17      -1.92
O      22.65      11.11       2.20
O      22.45      11.84      -2.44
O      23.33      12.61      -0.50
C      20.34       8.24      -1.75
C      18.36      12.87      -2.64
C      17.31      10.46       1.75
C      20.34      14.60       1.75
C      22.32       9.97       2.64
C      23.37      12.38      -1.75
O      20.34      11.42      -0.00
O      20.10       8.21      -0.50
O      19.35      12.14      -2.97
