15

Cu       7.46      24.51       5.53
N       5.06      23.31       6.29
Cu       7.34      26.86       7.64
N       6.13      23.23       5.44
Cu       5.07      24.61       7.61
N       8.74      25.83       5.47
C       5.87      22.28       4.52
N       8.65      26.89       6.34
C       4.14      22.41       5.91
N       5.04      25.92       8.91
C       9.70      26.10       4.57
C       4.15      26.20       9.88
N       6.02      26.89       8.93
C       9.56      27.82       5.98
C       5.73      27.76       9.91
