20

Zn       5.27       5.76       8.65
Zn       5.25       8.66       8.71
C       5.27       7.26       6.06
C       2.62       7.36       8.62
C       5.22       7.13      11.37
C       7.89       7.17       8.68
C       4.47      11.39       8.01
C       6.21      11.38       9.58
C       5.94       2.93       9.46
C       4.22       3.04       7.85
N       5.38      10.71       8.77
N       5.09       3.68       8.69
O       5.23       6.12       6.63
O       5.34       8.37       6.68
O       3.21       8.48       8.63
O       3.24       6.23       8.67
O       5.13       8.26      10.77
O       5.29       6.02      10.71
O       7.31       6.04       8.60
O       7.28       8.28       8.87
