10

Al       0.01      29.21      16.86
O      -1.08      27.99      17.85
O      -1.08      28.97      15.31
O       1.09      28.99      18.43
O      -1.08      30.69      17.45
O       1.09      27.96      15.89
O       1.09      30.67      16.29
C      -2.06      31.28      16.87
C      -2.05      28.17      15.08
C      -2.04      28.19      18.66
