18

Zn      15.51      12.62       5.42
C      13.89      10.41       4.16
O      17.31      12.58       4.63
C      18.03      11.59       4.28
Zn      16.38       9.35       5.43
N      16.90       7.41       5.08
O      14.65       9.42       4.39
O      15.57       9.46       7.27
O      14.15      11.63       4.41
C      16.68       9.48       7.96
C      15.67      15.58       5.05
C      18.15       6.98       5.34
C      14.76      12.52       7.99
C      13.51      14.72       4.97
C      15.97       6.51       4.69
O      15.89      12.62       7.36
N      14.85      14.51       5.02
O      17.73      10.36       4.40
