23

Zn      18.44      15.99       1.97
Zn      18.42      17.84      -0.63
Zn      16.84      15.05      -0.65
Zn      20.04      15.08      -0.67
O      18.37      19.14       0.84
O      20.01      15.04       2.68
O      16.77      18.26      -1.62
O      17.32      13.49      -1.74
O      19.98      18.24      -1.74
O      15.78      16.21      -1.83
O      15.71      14.44       0.82
O      19.60      13.48      -1.72
O      21.19      14.47       0.82
C      20.95      17.49      -2.10
C      15.87      14.53       2.09
C      18.44      18.95       2.10
C      18.46      13.02      -2.07
C      15.87      17.46      -2.07
C      21.00      14.53       2.08
O      18.44      15.99       0.01
O      21.11      16.26      -1.79
O      18.51      17.82       2.69
O      16.85      15.10       2.69
