15

C      21.40      28.39       2.21
N      24.40      33.02       3.89
Cu      22.35      32.78       5.77
Cu      23.62      31.52       3.15
N      23.85      33.56       5.03
Cu      21.02      30.22       4.46
N      20.85      32.06       6.54
N      20.26      30.95       5.98
N      21.75      29.46       2.95
N      22.88      30.02       2.38
C      24.57      34.63       5.39
C      25.46      33.77       3.54
C      19.18      30.62       6.71
C      20.13      32.41       7.62
C      23.22      29.30       1.30
