12

O      -1.02      -7.85      17.43
C      -2.29      -5.74      14.43
In      -2.96      -7.61      16.32
O      -3.48      -6.14      14.74
C      -3.40      -9.71      14.76
C      -1.44      -8.86      18.09
O      -4.39      -9.11      15.29
O      -4.94      -7.12      17.34
O      -2.65      -9.27      17.99
C      -4.46      -6.12      17.97
O      -3.24      -5.77      17.84
O      -2.20      -9.31      14.93
