15

C      10.46      24.09       3.26
N       9.59      23.65       4.19
N       7.42      23.99       8.16
C       7.12      24.81       9.18
N       9.74      24.43       5.31
N       6.41      23.07       8.03
C       5.48      23.34       8.97
Cu       8.33      22.30       4.16
Cu       6.42      21.87       6.63
Cu       8.62      24.15       6.76
C      10.69      25.35       5.06
C       6.72      20.06       3.14
C       5.50      19.66       4.95
N       6.32      20.70       5.21
N       7.08      20.94       4.09
