35

Zn       3.06      15.19       0.02
Zn       6.30      17.36      -0.04
Zn       3.01      18.20       1.58
Zn       5.86      15.04      -2.06
N       4.95      18.25       2.30
C       1.32      16.73      -1.85
C       4.84      18.97      -2.22
C       2.56      21.20       2.59
C       3.99      13.49      -3.51
C       2.17      13.58      -2.27
C       4.52      17.30      -3.63
C       1.21      18.65      -0.76
C       5.11      13.75       1.58
C       7.06      18.92       2.38
C       1.81      16.33       3.72
C       8.67      15.75      -2.83
C       9.22      17.27      -1.35
C       1.57      14.44       2.60
C       7.03      14.50       0.78
C       5.16      18.81       3.51
N       2.30      16.75      -0.93
N       5.18      17.82      -1.61
N       2.79      20.17       1.74
N       4.37      13.77      -2.25
N       3.61      20.60       0.70
N       3.23      13.84      -1.47
N       4.98      16.79      -2.48
N       2.23      17.94      -0.26
N       4.85      14.86       0.87
N       6.12      18.33       1.60
N       2.19      16.54       2.45
N       7.69      15.84      -1.92
N       8.01      16.78      -1.03
N       2.04      15.37       1.75
N       6.02      15.32       0.35
