10

Al       0.86      13.44       7.79
C       2.99      11.83       9.00
C       2.98      13.20       5.80
C       2.98      15.28       8.58
O       2.02      14.98       7.81
O       2.03      12.66       9.12
O       2.02      12.68       6.47
O      -0.25      14.60       8.83
O      -0.25      13.75       6.25
O      -0.25      11.95       8.29
