14

Zn       5.61      10.93      13.39
C       3.14      11.85      12.06
H       8.08      11.33      12.83
O       6.27      12.76      13.89
C       2.76      11.88      13.46
C       4.74      11.31      10.47
N       4.38      11.40      11.75
C       6.46      13.21      15.08
C       3.35      11.44      15.65
N       3.66      11.42      14.36
O       5.89       9.30      14.62
H       7.91       9.85      12.35
C       5.50       8.36      13.80
O       7.46      10.76      12.32
