18

Mg       4.57      11.58       5.47
C       1.98      11.22       4.25
Mg       2.29      11.45       7.29
O       3.67      12.86       6.77
Mg       6.85       9.94       6.28
C       6.54      12.69       7.60
O       0.88      12.66       8.07
O       6.13      11.76       6.80
O       1.39       9.69       7.75
O       5.44       8.66       6.93
C       1.97       8.57       8.21
O       3.85      10.21       6.79
O       5.95      10.43       4.52
O       3.16      11.65       4.04
O       1.57      11.00       5.45
C       4.26       9.06       7.20
C       6.53      10.58       3.32
C       4.25      13.82       7.51
