36

Co       0.14       0.14      12.23
Co      -0.14      -0.14       5.24
Co       0.14      -0.14      15.73
Co      -0.14       0.14       8.74
C       0.18      -2.77      11.58
C      -0.33       3.04       9.43
C      -0.18       2.77      18.57
C       0.33      -3.04      16.42
C      -2.77      -0.18      15.07
C       3.04       0.33      12.93
C       2.77       0.18       8.08
C      -3.04      -0.33       5.94
C       0.18       2.77      16.39
C      -0.33      -3.04      18.53
C      -0.18      -2.77       9.40
C       0.33       3.04      11.54
C      -2.77       0.18      12.89
C       3.04      -0.33      15.04
C       2.77      -0.18       5.90
C      -3.04       0.33       8.04
N       0.12      -1.49      11.16
N      -0.21       1.76       9.84
N      -0.12       1.49      18.15
N       0.21      -1.76      16.83
N      -1.49      -0.12      14.65
N       1.76       0.21      13.33
N       1.49       0.12       7.66
N      -1.76      -0.21       6.34
N       0.12       1.49      16.80
N      -0.21      -1.76      18.13
N      -0.12      -1.49       9.81
N       0.21       1.76      11.14
N      -1.49       0.12      13.31
N       1.76      -0.21      14.63
N       1.49      -0.12       6.32
N      -1.76       0.21       7.64
