14

Zn       2.19       0.05       0.00
Zn       4.87       0.04      -0.00
O       2.88       1.98       0.00
O       5.15       2.00      -0.00
O       4.18       0.04       1.93
O       1.91       0.05       1.95
O       5.14      -1.91       0.00
O       2.87      -1.89       0.01
O       1.90       0.04      -1.94
O       4.17       0.04      -1.94
C       4.00       2.58       0.00
C       3.06       0.05       2.53
C       3.99      -2.49       0.01
C       3.05       0.03      -2.53
