20

Zn       5.92       5.41       8.09
Zn       3.17       5.30       7.94
H       8.46       6.33       7.83
H      10.40       5.33       6.99
C       4.52       7.95       7.81
C       4.63       5.12       5.42
C       8.71       4.64       8.78
C      10.19       4.74       8.84
C       4.79       2.76       8.32
C       4.24       5.54      10.63
N       7.96       5.52       8.23
N      10.91       5.12       7.85
O       5.67       7.40       7.72
O       3.41       7.33       7.94
O       5.72       5.01       6.07
O       3.46       5.24       5.91
O       5.90       3.39       8.49
O       3.66       3.31       8.09
O       5.38       5.73      10.09
O       3.13       5.34      10.04
