23

O       2.78      16.30       1.66
O       1.63      15.19      -2.60
Zn      -1.62      15.06       0.74
Zn      -0.02      15.99      -1.91
O      -2.71      16.23       1.88
O       2.55      14.19      -0.77
Zn       1.59      15.08       0.69
O       1.59      18.25       1.73
O      -0.15      17.79      -2.66
O       1.18      13.69       2.03
Zn      -0.01      17.85       0.67
O      -2.75      14.46      -0.76
O      -0.02      15.99       0.05
O      -0.06      19.13      -0.81
O      -1.06      13.44       1.71
O      -1.52      14.96      -2.62
O      -1.57      18.19       1.81
C      -0.09      18.93      -2.07
C       0.06      13.09       2.20
C      -2.54      14.47      -2.02
C       2.58      17.51       2.04
C       2.47      14.43      -2.03
C      -2.54      17.46       2.17
