23

Zn      22.14       7.92       0.55
Zn      23.61      10.56       0.80
Zn      25.46       7.94       0.61
Zn      23.98       8.77      -1.95
C      20.99      10.17       2.05
C      26.10      10.29       2.19
C      23.79       5.90       1.96
C      26.60       7.47      -2.06
C      21.49       7.35      -2.20
C      23.76      11.72      -1.93
O      23.80       8.80       0.00
O      20.96       8.92       1.74
O      24.88      10.63       2.33
O      24.91       6.51       1.81
O      21.93      11.00       1.71
O      22.65       6.26       1.46
O      26.55       9.48       1.32
O      26.63       7.25      -0.79
O      22.71       7.34      -2.56
O      25.67       8.11      -2.69
O      21.03       7.83      -1.12
O      23.83      11.88      -0.64
O      23.70      10.60      -2.55
