23

Zn      19.63       8.12      23.60
Zn      22.94       8.16      23.74
Zn      21.13       7.24      26.18
Zn      21.38       5.47      23.43
C      21.31      10.15      22.34
C      23.56       8.69      26.47
C      18.55       8.56      26.23
C      21.24       4.35      26.12
C      18.96       5.85      22.00
C      23.98       5.92      22.25
O      21.27       7.26      24.23
O      20.19       9.53      22.33
O      24.03       8.20      25.39
O      19.29       7.67      26.74
O      22.33       9.91      23.05
O      18.58       8.99      25.03
O      22.34       8.67      26.82
O      21.52       5.41      26.78
O      20.18       5.54      21.86
O      20.87       4.27      24.91
O      18.50       6.67      22.86
O      23.97       7.20      22.36
O      23.21       5.10      22.83
