20

Zn       7.55       9.21       6.45
Zn       7.83       9.02       9.29
C       7.09       8.20      12.03
C       8.73       9.84      11.99
N       7.43       9.39       4.42
N       7.93       8.99      11.33
O       5.61       8.69       6.88
O       5.82       8.52       9.13
O       7.08      11.14       6.95
O       7.25      10.99       9.21
O       9.59       9.61       6.61
O       9.80       9.51       8.87
O       8.10       7.23       6.52
O       8.34       7.11       8.78
C       5.14       8.58       8.06
C       6.93      11.59       8.13
C      10.27       9.48       7.68
C       8.44       6.64       7.60
C       6.63       8.56       3.73
C       8.23      10.24       3.75
