24

Al      11.86       9.89      20.68
Al      15.06      10.01      20.75
Al      13.77       7.31      20.73
O      11.22       8.45      21.93
O      11.41       8.78      19.17
O      14.90      11.35      19.50
O      15.24       6.94      19.63
O      12.64      11.16      19.34
O      14.70      11.19      22.18
O      16.01       9.07      19.36
O      12.73       6.91      19.22
O      13.57       9.07      20.74
O      14.98       7.17      22.24
O      12.45      10.90      22.32
O      16.15       9.10      21.96
O      12.51       6.56      21.82
O      10.33      10.72      20.64
H      10.01      11.08      21.48
C      13.56      11.30      22.77
C      15.84       8.03      22.60
C      11.57       7.30      22.32
C      13.76      11.51      18.89
C      15.92       7.84      19.02
C      11.88       7.71      18.67
