23

Zn      18.39       7.28       8.82
Zn      16.87       4.44       8.67
Zn      18.63       5.48       6.18
Zn      20.08       4.55       8.87
O      18.48       5.43       8.14
O      16.74       7.56       9.85
O      15.83       3.78       7.13
O      18.59       7.31       5.50
O      15.66       5.54       9.75
O      18.41       8.61       7.38
O      17.10       4.52       5.39
O      20.26       4.63       5.51
O      21.09       5.74      10.05
O      21.30       3.97       7.44
O      19.90       7.68      10.02
C      15.77       6.76      10.12
C      21.22       4.08       6.18
O      19.62       2.94       9.89
C      20.88       6.95      10.39
C      18.48       2.42      10.13
C      18.50       8.43       6.11
O      17.34       2.86       9.75
C      16.10       3.92       5.88
