18

Al       5.72       5.20       5.76
O       6.21       4.03       7.24
Al       2.38       5.22       5.78
O       2.95       6.47       4.45
O       4.05       4.41       5.84
O       8.49       3.91       7.12
O       1.89       4.03       4.36
O       7.38       6.02       5.81
H       4.04       3.57       6.32
H       7.36       6.88       6.26
C       4.07       6.70       3.89
C       4.04       6.87       7.55
C       7.36       3.61       7.62
C       7.41       3.60       3.99
O       2.88       6.46       7.20
O       5.21       6.30       4.28
O       6.29       3.88       4.52
O       5.16       6.57       7.03
