15

Cu      27.53      30.20      27.99
Cu      26.18      29.02      30.59
C      24.55      31.43      30.25
Cu      28.62      27.49      29.24
C      25.31      32.10      28.28
C      29.86      29.77      26.28
C      26.36      26.73      32.39
C      30.44      27.75      26.95
C      28.16      25.75      31.55
N      25.55      30.60      29.88
N      26.03      31.03      28.67
N      29.04      29.41      27.29
N      29.41      28.16      27.71
N      27.87      26.82      30.79
N      26.76      27.43      31.31
