13

O       4.97      10.80       5.11
Cd       4.14      13.11       5.33
C       6.13      11.29       4.97
N       4.66      15.37       5.53
C       3.98      11.88       2.23
N       3.62      12.91       3.08
O       3.31      13.34       7.64
C       5.71      15.92       4.92
O       1.89      13.39       5.90
O       6.38      12.54       5.06
C       2.57      13.53       2.53
C       4.29      16.22       6.56
C       2.14      13.48       7.16
