15

C      21.93       8.31       2.75
C      23.66       8.07       4.11
Cu      20.30       6.05       3.66
Cu      22.68       5.83       5.73
C      18.02       4.45       2.78
C      23.54       4.16       7.98
Cu      20.08       4.04       6.11
C      17.76       3.16       4.56
N      22.75       7.13       4.42
N      21.67       7.27       3.58
N      18.94       4.81       3.69
N      18.78       4.01       4.80
N      21.44       3.92       7.34
N      22.62       4.58       7.08
C      21.64       3.12       8.41
