10

Al       0.03      27.96       8.07
O       1.07      28.80       6.71
O       1.07      28.73       9.48
O       1.07      26.36       8.03
O      -1.03      29.53       7.75
O      -1.03      26.90       6.88
O      -1.03      27.46       9.59
C       2.01      28.15      10.12
C       2.01      26.09       7.22
C       2.01      29.64       6.89
