15

Cu      -0.01       0.01      13.41
C       1.25      -2.48      12.53
C      -1.16      -1.37      16.25
C      -0.77      -1.74      11.25
C      -2.77      -1.00      14.64
N       1.47       0.92      11.79
N      -1.49      -0.90      15.03
C      -1.27       2.49      14.29
C       0.75       1.76      15.58
O      -1.10      -0.73      11.96
O       1.22      -1.61      13.47
O       1.09       0.74      14.87
O      -1.23       1.62      13.36
C       1.15       1.39      10.58
C       2.75       1.02      12.19
