22

Zn       8.87       8.98       1.22
Br       4.04      11.03      -1.96
Zn       3.75       8.80      -1.22
N       9.09       9.43      -0.81
H      10.06       9.13      -0.98
N      14.20       8.35       0.81
H      15.18       8.66       0.98
N       8.33      10.46       2.53
N       3.21       7.32      -2.53
O       5.79       8.14      -1.50
O      10.91       9.64       1.50
C       6.78       8.55      -0.83
C      11.90       9.23       0.83
C       9.01      10.90      -1.02
C      14.13       6.88       1.02
C       8.11       8.67      -1.60
C      13.22       9.11       1.60
C       7.16      11.13       2.44
C       2.05       6.65      -2.44
C       9.18      10.78       3.53
C       4.07       7.00      -3.53
Br       9.16       6.75       1.96
