16

Cu       3.93       9.86      13.59
I       6.17      11.21      12.87
I       2.44       8.49      11.86
Cu       4.68       9.83      11.14
C       5.74       8.83      15.62
C       2.87      10.86       9.10
C       4.26       7.23      14.85
C       4.35      12.47       9.87
N       2.72      11.21      14.39
N       5.89       8.48      10.34
N       4.70       8.50      14.82
C       3.10      12.50      14.56
N       3.91      11.19       9.90
C       5.51       7.20      10.17
C       1.56      10.82      14.96
C       7.05       8.88       9.77
