10

Zn       4.68       0.23       4.27
N       4.83       1.24       2.53
C       4.07       2.32       2.22
C       4.85       1.35       7.01
O       2.85      -0.34       4.70
C       5.69       0.80       1.58
C       6.22       2.39       5.46
S       2.30      -1.60       4.03
O       5.65      -1.48       4.18
N       5.26       1.47       5.73
