17

Ni       6.90       0.00      17.09
N       5.24      -1.03      17.72
N       7.48      -1.68      16.03
N       6.32       1.68      18.16
C       8.90       1.46      15.23
N       7.34      -2.88      16.63
C       4.89      -1.46      18.95
N       6.46       2.88      17.56
O       5.88       0.96      15.50
C       8.17      -1.91      14.91
O       7.91      -0.96      18.68
C       5.62       1.91      19.28
S       5.38       0.53      14.16
S       8.41      -0.53      20.03
N       9.59       1.32      17.27
N       4.20      -1.32      16.91
N       8.56       1.03      16.46
