10

Al       0.11      -5.10       8.87
C       2.09      -5.11       6.81
O       1.16      -6.05      10.17
O       1.16      -5.75       7.39
O       1.16      -3.52       9.04
O      -0.94      -6.69       9.05
O      -0.94      -4.13      10.16
O      -0.94      -4.46       7.40
C       2.09      -6.88       9.91
C       2.08      -3.31       9.90
