18

Al       4.49      19.00      21.53
Al       1.04      19.09      21.51
O       1.63      20.31      22.90
O       1.63      20.33      20.15
O       5.08      17.78      20.15
H       2.68      17.25      21.52
H       6.13      20.84      21.53
O       5.09      17.76      22.90
O       3.91      20.21      20.20
C       2.82      20.65      19.71
O       3.90      20.18      22.88
O       7.36      17.88      22.84
C       2.81      20.63      23.35
C       6.28      17.44      23.33
O       7.35      17.91      20.17
O       2.75      18.22      21.51
C       6.26      17.46      19.70
O       6.21      19.87      21.53
