18

Mg      -0.09      -1.05      20.72
C      -0.40       1.68      19.37
C       1.91      -2.42      18.74
Mg       2.20       0.46      19.68
Mg      -2.37       0.60      21.50
C      -2.69      -1.93      19.81
C      -0.38      -0.42      23.67
C       1.88       0.26      22.71
O       3.07       0.68      22.91
O       1.44       0.08      21.51
O      -0.99      -0.50      22.48
O      -1.51      -2.32      20.08
O       3.72      -0.80      20.27
O       1.30      -1.35      19.27
O       0.78       1.64      18.90
O      -0.85       0.72      20.12
O       3.58       1.86      20.14
C       4.19       2.85      19.48
