14

Zn       3.68       5.97       7.58
Zn       2.12       3.69       7.57
C       1.98       6.25       9.53
O       1.57       5.15       9.03
O       1.98       6.10       6.31
C       0.92       5.46       6.07
C       4.59       4.30       5.73
O       4.87       5.48       6.14
C       4.07       3.30       9.28
O       4.40       4.46       8.90
O       0.67       4.24       6.41
O       3.63       3.57       6.09
O       3.06       2.62       8.87
O       2.95       6.95       9.06
