11

O       1.04       1.85      12.25
Zn       0.40       2.63      13.95
C      -1.88       1.09      12.87
O       1.13       1.75      15.55
N      -1.57       2.06      13.76
C      -0.05       5.54      14.57
C       0.56       2.28      16.59
N       0.50       4.67      13.69
C      -2.55       2.57      14.54
C       2.32       2.02      12.04
C       1.08       5.17      12.59
