23

Zn       8.22       8.54       7.02
Zn      10.67       8.74       9.08
Zn       8.58      11.01       9.16
Zn      10.24      10.82       6.49
C      12.89       9.79       7.41
C       6.04       9.73       8.61
C       9.30       6.20       8.51
C       9.02      13.34       7.42
C      10.21      10.33      11.47
C       9.12       9.16       4.32
O       9.46       9.76       7.93
O      10.44       9.16      10.99
O       9.68      10.23       4.71
O       9.70      11.29      10.77
O       8.50       8.34       5.09
O       8.45       6.70       7.69
O       9.68      12.70       6.53
O      12.50       9.20       8.47
O       6.78      10.30       9.49
O      12.19      10.45       6.58
O       6.44       9.21       7.51
O      10.26       6.82       9.09
O       8.53      12.86       8.49
