22

Zn       3.35       5.42       5.53
Zn       6.22       5.47       5.49
C       4.85       5.51       2.85
C       4.79       5.51       8.09
C       4.79       2.87       5.46
C       4.83       8.11       5.46
C      -0.82       4.66       4.31
C       0.73       4.66       4.31
C       0.73       6.80       5.45
C      -0.82       6.80       5.44
C      -0.82       4.75       6.72
C       0.72       4.75       6.73
N       1.24       5.41       5.49
N      -1.33       5.41       5.49
O       3.63       3.43       5.47
O       5.93       3.45       5.45
O       3.68       7.49       5.48
O       5.96       7.54       5.44
O       3.70       5.50       3.46
O       5.93       5.53       7.51
O       5.98       5.52       3.41
O       3.63       5.50       7.53
