20

Zn       4.61       8.64       7.52
Zn       4.71       5.57       7.40
O       6.65       6.01       6.99
C       4.48       7.30       4.98
C       5.18      11.62       8.30
C       4.13       2.73       6.20
C       3.63      11.54       6.56
C       5.69       2.71       7.93
C       4.92       7.23       9.98
C       7.22       7.09       7.36
C       2.23       6.50       8.02
N       4.38      10.90       7.49
N       4.89       3.39       7.10
O       4.72       8.42       5.52
O       5.18       6.17       9.33
O       4.61       8.37       9.53
O       4.21       6.21       5.55
O       6.68       8.22       7.52
O       2.79       5.36       8.12
O       2.79       7.59       7.71
