18

O       5.37       1.07       1.43
O       4.25      -0.76      -0.19
Al       2.55       0.04      -0.06
H       7.63       1.39       0.95
Al       5.93       0.07      -0.10
H       4.26      -1.67       0.16
C       4.24       1.32       1.98
C       4.22       1.91      -1.58
C       7.65      -1.15      -2.14
C       7.62      -1.90       1.38
O       6.51      -0.84      -1.66
O       6.48      -1.47       1.01
O       7.63       0.82       0.17
O       5.38       1.49      -1.25
O       3.09       0.98       1.54
O       1.99      -1.48       1.05
O       3.10       1.50      -1.15
O       1.99      -0.92      -1.61
