14

Zn      11.64      15.27       0.00
C      12.42      13.04      -1.68
Zn      10.07      13.21       0.00
O      10.33      16.06       1.33
O      11.40      12.39      -1.28
O      12.75      14.22      -1.33
O       8.93      14.28       1.28
O      10.53      15.92      -1.55
O       9.11      14.13      -1.51
O      12.56      14.37       1.55
C       9.52      15.25      -1.97
C      12.18      13.22       1.97
O      11.22      12.53       1.51
C       9.28      15.43       1.68
