23

Zn       9.07      15.62       0.78
Zn      10.82      18.31       0.56
Zn       7.59      18.43       0.65
Zn       9.06      17.34      -1.95
C      11.67      15.97       2.16
C       9.33      20.47       1.91
C       6.51      16.15       2.17
C       6.50      18.82      -2.06
C       9.06      14.38      -1.91
C      11.66      18.74      -2.24
O       9.15      17.43       0.01
O      10.64      15.26       1.90
O      10.46      19.98       1.54
O       6.41      17.36       1.79
O      11.91      17.15       1.73
O       7.47      15.34       1.90
O       8.17      20.00       1.66
O       6.42      19.03      -0.81
O       9.07      15.48      -2.57
O       7.45      18.21      -2.67
O       9.02      14.25      -0.64
O      11.93      18.81      -0.99
O      10.61      18.24      -2.76
