10

Zn       2.37       8.33       7.56
N       2.23       9.33       9.31
C       2.98      10.42       9.61
C       2.20       9.44       4.83
O       4.20       7.75       7.14
C       1.36       8.90      10.25
S       4.75       6.50       7.80
O       1.40       6.61       7.65
C       0.84      10.48       6.38
N       1.80       9.57       6.11
