18

Al       5.08       3.24       4.78
Al       1.73       3.23       4.75
C       6.76       4.59       6.78
O       2.28       1.79       5.89
O       5.63       4.69       3.65
O       4.55       2.19       3.25
O       7.90       4.29       6.29
O       4.54       1.84       5.97
O       7.89       4.64       3.56
H       3.40       4.95       5.17
O       5.62       4.28       6.32
H       6.75       1.53       4.37
O       2.27       2.20       3.21
O       3.40       4.03       4.87
O       6.75       2.45       4.66
C       3.41       1.38       6.32
C       3.41       1.88       2.76
C       6.75       5.10       3.22
