23

Zn      16.03      16.27      22.36
Zn      17.57      15.39      24.98
Zn      15.73      18.06      25.02
Zn      14.33      15.22      24.88
C      18.63      14.88      22.28
C      18.21      17.74      26.63
C      15.98      19.23      22.36
C      13.14      17.54      26.30
C      13.52      14.72      22.09
C      16.02      13.30      26.36
O      15.92      16.23      24.32
O      17.65      15.43      21.67
O      18.64      16.75      25.97
O      15.93      19.41      23.63
O      18.76      14.75      23.55
O      16.00      18.12      21.74
O      16.99      18.15      26.59
O      14.06      18.39      25.99
O      13.28      14.57      23.34
O      13.10      16.31      25.95
O      14.51      15.32      21.57
O      17.14      13.88      26.14
O      14.87      13.67      25.94
