20

Zn       4.81       5.65       8.58
Zn       4.91       8.47       8.67
C       4.92       7.31       6.01
C       2.26       7.25       8.67
C       4.80       6.81      11.24
C       7.46       6.87       8.58
C       4.03      11.19       8.11
C       5.75      11.30       9.65
C       5.69       2.93       9.14
C       3.97       2.82       7.60
N       4.95      10.56       8.88
N       4.76       3.56       8.37
O       4.89       6.19       6.60
O       4.86       8.46       6.57
O       2.85       8.38       8.58
O       2.85       6.12       8.75
O       4.83       7.94      10.65
O       4.86       5.67      10.68
O       6.87       5.74       8.67
O       6.87       8.00       8.50
