18

Al       5.36      18.96       6.43
O       4.82      20.36       7.62
Al       2.01      18.95       6.45
O       8.18      17.54       5.26
O       5.90      17.89       7.94
O       5.91      17.56       5.23
O       2.55      20.01       4.94
O       3.69      18.16       6.54
O       7.04      19.75       6.34
O       4.83      20.02       4.90
H       3.70      17.23       6.83
H       7.05      20.67       6.05
C       3.68      20.32       4.45
O       8.18      17.89       7.98
C       7.03      17.58       8.43
O       2.56      20.34       7.65
C       3.69      20.76       8.04
C       7.05      17.14       4.84
