18

Al       3.40       5.75       8.69
Al       6.74       5.74       8.73
H       5.07       4.33       7.67
H       1.76       7.22       9.65
O       2.80       3.95       8.45
O       0.66       5.81       6.90
C       1.70       3.34       8.66
C       1.76       6.04       6.31
C       5.10       8.16       8.75
C       5.00       5.47      11.10
O       6.24       7.61       8.58
O       3.88       5.36      10.50
O       4.00       7.56       8.92
O       6.13       5.68      10.56
O       0.57       3.89       8.88
O       2.91       6.12       6.86
O       5.08       5.20       8.09
O       1.73       6.30       9.32
