20

Zn       3.63       5.53       6.01
Zn       6.41       5.50       5.98
C       5.07       8.11       6.11
C      -0.56       6.04       6.95
C      -0.54       4.95       4.98
C       0.85       4.96       4.99
C       5.01       5.41       8.63
C       0.84       6.05       6.96
C       5.03       2.92       5.87
C       4.98       5.62       3.36
N      -1.28       5.50       5.98
N       1.57       5.52       6.00
O       3.93       7.55       6.11
O       6.20       7.52       6.14
O       3.86       5.45       8.09
O       6.14       5.35       8.05
O       3.91       3.52       5.93
O       6.17       3.49       5.80
O       3.84       5.60       3.93
O       6.12       5.66       3.91
