18

Al      -1.92       2.41       8.18
Al       1.43       2.40       8.19
H      -0.24       1.47       6.67
H      -3.59       3.79       9.29
O      -2.49       0.60       7.92
O      -4.67       2.58       6.37
O       0.93       4.24       8.19
O      -1.41       1.98       9.97
O      -1.33       4.24       8.43
O       0.84       2.14       9.99
O      -4.74       0.58       8.20
O      -2.43       2.89       6.38
C      -3.61      -0.02       8.07
C      -3.57       2.88       5.79
C      -0.21       4.84       8.29
C      -0.27       1.90      10.56
O      -0.25       1.91       7.53
O      -3.59       2.93       8.84
