13

Zn      -2.41      10.29      31.24
Zn      -6.02      10.28      32.06
O      -2.04       8.40      30.95
C      -0.98       7.79      31.33
O      -4.34      10.35      30.74
C      -5.02      10.32      29.61
C      -0.93      12.79      31.32
O      -1.96      12.18      30.87
O      -2.45      10.48      33.21
C      -1.57      10.40      34.14
O       0.06       8.33      31.83
O      -6.29      12.26      31.86
O      -6.69      10.25      33.98
