154

Sm      14.82       8.56       3.97
Sm      14.82      17.12       3.97
Sm      14.82      17.12      -3.97
Sm      14.82       8.56      -3.97
Zn      14.82      12.84      -0.00
Zn      11.12       6.42       0.00
Zn      18.53       6.42       0.00
Zn      11.12       6.42       7.93
Zn      14.82      12.84       7.93
Zn      18.53       6.42       7.93
H      15.53      10.54      -0.80
H      12.76       8.18      -0.80
H      16.18       6.96      -0.80
H      14.12      15.14      -0.80
H       9.48       4.66      -0.80
H      20.88       5.88      -0.80
H       8.77       5.88       8.74
H      15.53      15.14       8.74
H      20.17       4.66       8.74
H      13.47       6.96       8.74
H      14.12      10.54       8.74
H      16.89       8.18       8.74
H      14.12      15.14       0.80
H       9.48       4.66       0.80
H      20.88       5.88       0.80
H      15.53      10.54       0.80
H      12.76       8.18       0.80
H      16.18       6.96       0.80
H      13.47       6.96       7.13
H      14.12      10.54       7.13
H      16.89       8.18       7.13
H       8.77       5.88       7.13
H      15.53      15.14       7.13
H      20.17       4.66       7.13
C      13.58      11.16       2.22
C      12.37      10.91       3.10
C      13.20       6.18       2.22
C      14.01       5.26       3.10
C      17.70       8.34       2.22
C      18.09       9.51       3.10
C      16.07      14.52       2.22
C      17.28      14.77       3.10
C       9.04       6.66       2.22
C       8.22       7.58       3.10
C      19.36       4.50       2.22
C      18.98       3.33       3.10
C      10.29       4.50       5.72
C      10.67       3.33       4.83
C      13.58      14.52       5.72
C      12.37      14.77       4.83
C      20.61       6.66       5.72
C      21.43       7.58       4.83
C      11.95       8.34       5.72
C      11.56       9.51       4.83
C      16.07      11.16       5.72
C      17.28      10.91       4.83
C      16.45       6.18       5.72
C      15.64       5.26       4.83
C      16.07      14.52      -2.22
C      17.28      14.77      -3.10
C       9.04       6.66      -2.22
C       8.22       7.58      -3.10
C      19.36       4.50      -2.22
C      18.98       3.33      -3.10
C      13.58      11.16      -2.22
C      12.37      10.91      -3.10
C      13.20       6.18      -2.22
C      14.01       5.26      -3.10
C      17.70       8.34      -2.22
C      18.09       9.51      -3.10
C      11.95       8.34      10.15
C      11.56       9.51      11.04
C      16.07      11.16      10.15
C      17.28      10.91      11.04
C      16.45       6.18      10.15
C      15.64       5.26      11.04
C      10.29       4.50      10.15
C      10.67       3.33      11.04
C      13.58      14.52      10.15
C      12.37      14.77      11.04
C      20.61       6.66      10.15
C      21.43       7.58      11.04
O      14.56      10.33       2.30
O      13.49      12.16       1.47
O      13.43       7.44       2.30
O      12.37       5.60       1.47
O      16.49       7.91       2.30
O      18.61       7.91       1.47
O      15.09      15.35       2.30
O      16.16      13.51       1.47
O       8.81       5.40       2.30
O       9.87       7.24       1.47
O      20.57       4.93       2.30
O      18.45       4.93       1.47
O       9.08       4.93       5.64
O      11.20       4.93       6.46
O      14.56      15.35       5.64
O      13.49      13.51       6.46
O      20.84       5.40       5.64
O      19.78       7.24       6.46
O      13.16       7.91       5.64
O      11.04       7.91       6.46
O      15.09      10.33       5.64
O      16.16      12.16       6.46
O      16.22       7.44       5.64
O      17.28       5.60       6.46
O      15.09      15.35      -2.30
O      16.16      13.51      -1.47
O       8.81       5.40      -2.30
O       9.87       7.24      -1.47
O      20.57       4.93      -2.30
O      18.45       4.93      -1.47
O      14.56      10.33      -2.30
O      13.49      12.16      -1.47
O      13.43       7.44      -2.30
O      12.37       5.60      -1.47
O      16.49       7.91      -2.30
O      18.61       7.91      -1.47
O      13.16       7.91      10.23
O      11.04       7.91       9.41
O      15.09      10.33      10.23
O      16.16      12.16       9.41
O      16.22       7.44      10.23
O      17.28       5.60       9.41
O       9.08       4.93      10.23
O      11.20       4.93       9.41
O      14.56      15.35      10.23
O      13.49      13.51       9.41
O      20.84       5.40      10.23
O      19.78       7.24       9.41
O      12.65       9.82       3.97
O      14.82       6.04       3.97
O      17.00       9.82       3.97
O      17.00      15.86       3.97
O       7.41       6.79       3.97
O      20.06       3.02       3.97
O      17.00      15.86      -3.97
O       7.41       6.79      -3.97
O      20.06       3.02      -3.97
O      12.65       9.82      -3.97
O      14.82       6.04      -3.97
O      17.00       9.82      -3.97
O      15.92      10.97      -0.00
O      12.19       8.30       0.00
O      16.36       6.41       0.00
O      13.73      14.71      -0.00
O      10.05       4.54      -0.00
O      20.70       6.43       0.00
O       8.95       6.43       7.93
O      15.92      14.71       7.93
O      19.60       4.54       7.93
O      13.29       6.41       7.93
O      13.73      10.97       7.93
O      17.46       8.30       7.93
