36

La       6.51      -0.00       7.90
La      10.85       0.21       8.26
La       2.17      -0.21       8.26
C       3.97       3.38       6.62
C       8.31      -0.38      11.83
C      12.66      -3.01       5.97
C       9.05      -3.38       6.62
C       4.71       0.38      11.83
C       0.37       3.01       5.97
C       3.81       2.12       7.37
C       8.15      -0.39      10.36
C      12.49      -1.73       6.69
C       9.22      -2.12       7.37
C       4.88       0.39      10.36
C       0.54       1.73       6.69
C      13.03      -0.00      11.02
C       4.34      -2.49       6.70
C       8.68       2.49       6.70
O       2.99       2.10       8.35
O       7.34      -1.24       9.85
O      11.68      -0.86       6.21
O      10.03      -2.10       8.35
O       5.69       1.24       9.85
O       1.35       0.86       6.21
O       4.42       1.05       6.98
O       8.76       0.47       9.62
O       0.08      -1.52       7.81
O       8.60      -1.05       6.98
O       4.26      -0.47       9.62
O      12.94       1.52       7.80
O       1.13      -0.03      10.42
O       5.47      -1.96       6.97
O       9.81       1.99       7.02
O      11.90       0.03      10.42
O       7.56       1.96       6.97
O       3.21      -2.00       7.02
