10

O       2.96      15.52      18.10
Al       4.03      14.57      16.82
O       2.96      15.20      15.36
O       5.09      13.94      15.36
O       2.96      12.99      17.01
O       5.09      16.15      17.01
O       5.09      13.62      18.10
C       2.01      14.57      14.78
C       2.01      16.34      17.84
C       2.01      12.80      17.84
