14

Zn      19.83       9.27      16.12
O      17.39       9.28      14.12
O      17.39       9.26      18.13
O      19.68       9.28      18.13
Zn      17.24       9.27      16.12
C      18.54       6.68      16.12
C      18.53      11.86      16.12
C      18.54       9.27      18.71
C      18.53       9.27      13.54
O      19.68      11.29      16.12
O      17.39       7.24      16.12
O      17.39      11.29      16.13
O      19.68       7.24      16.13
O      19.68       9.26      14.12
