11

Zn      11.71      16.08      12.58
C      13.98      17.62      13.65
O      10.98      16.97      10.97
C      12.15      13.18      11.95
N      13.67      16.65      12.76
C      11.54      16.44       9.93
N      11.60      14.04      12.83
C      14.65      16.15      11.98
C       9.79      16.70      14.48
O      11.06      16.87      14.27
C      11.02      13.55      13.94
