23

Zn      19.97       8.22      23.70
Zn      23.18       8.34      23.85
Zn      21.49       7.25      26.34
Zn      21.68       5.51      23.68
C      23.99       8.81      26.65
O      20.43       9.84      22.68
O      21.59       7.33      24.38
C      21.57      10.36      22.42
O      24.20       8.98      25.40
C      18.90       8.67      26.44
O      19.88       8.11      27.07
O      18.79       8.77      25.16
C      19.18       5.82      22.14
O      23.02       8.17      27.18
O      21.51       5.40      26.99
O      20.16       5.09      22.50
O      18.97       7.03      22.50
O      22.72       9.93      22.78
O      24.40       7.23      22.78
C      21.60       4.28      26.37
O      21.69       4.13      25.09
O      23.33       5.21      22.65
C      24.30       6.01      22.40
