24

Al       7.92       2.61       9.60
Al       4.72       2.75       9.57
Al       6.25       5.35       9.51
H       9.82       1.48       8.82
C       8.21       4.94       7.62
C       8.27       4.98      11.40
C       5.97       1.21      11.46
C       4.12       4.97      11.33
C       6.08       1.21       7.69
C       4.10       4.74       7.66
O       7.23       1.54       8.09
O       7.50       5.82      10.79
O       8.50       3.79      11.03
O       4.82       1.53      10.95
O       4.96       5.79      10.81
O       6.28       3.59       9.54
O       3.76       3.62       8.19
O       7.40       5.81       8.13
O       8.58       3.86       8.16
O       4.97       1.40       8.30
O       4.87       5.61       8.18
O       7.09       1.47      10.95
O       3.79       3.85      10.82
O       9.43       1.72       9.67
