14

Zn       2.34       3.27       7.64
Zn       3.74       5.57       7.61
O       4.01       3.11       6.37
C       4.17       3.20       9.60
O       5.08       5.11       6.29
O       0.93       3.60       6.32
C       4.92       3.88       5.94
O       1.52       4.74       8.93
O       2.25       5.43       6.12
O       2.61       6.72       8.71
C       1.22       4.75       5.82
O       3.27       2.41       9.11
O       4.42       4.37       9.15
C       1.67       5.97       9.19
