18

Al       1.08      10.33      12.04
Al       4.40      10.35      12.05
O       3.88       8.84      11.00
O       1.59      11.58      10.70
O       0.53      11.84      13.13
O       1.61       8.83      10.94
O       0.55       9.13      13.46
O       3.87      11.57      10.68
O       2.74      10.41      12.87
O      -1.73       9.18      13.50
O      -1.74      11.89      13.07
O      -0.60      10.21      11.26
H       2.74      10.10      13.79
H      -0.61       9.67      10.46
C       2.73      11.97      10.27
C       2.76       8.32      10.70
C      -0.59       8.77      13.90
C      -0.60      12.31      13.43
