23

Zn      12.85      -1.60       8.81
O      11.71       0.00      13.01
O      10.13      -1.58      10.78
Zn      11.25       0.00      11.11
Zn      12.85       1.60       8.81
O      11.27       2.72       9.15
O      15.57       1.58      10.78
Zn      14.45       0.00      11.11
O      14.43      -2.72       9.15
O      15.57      -1.58      10.78
O      14.43       2.72       9.15
O      10.13       1.58      10.78
O      11.27      -2.72       9.15
C      12.85       0.00      13.59
C      12.85       0.00       6.33
C      10.30      -2.55       9.96
C      10.30       2.55       9.96
C      15.40       2.55       9.96
C      15.40      -2.55       9.96
O      12.85       0.00       9.96
O      12.85       1.14       6.91
O      13.99       0.00      13.01
O      12.85      -1.14       6.91
