13

Cu      16.82       8.48       9.36
C      16.87      10.70       7.55
C      16.77       6.26       7.55
C      16.77      10.70      11.18
C      16.87       6.26      11.18
N      17.71       9.79       8.10
N      15.94       7.17       8.10
N      15.94       9.79      10.62
N      17.70       7.17      10.62
C      18.98       9.73       7.65
C      14.67       7.23       7.65
C      14.67       9.73      11.08
C      18.97       7.23      11.08
