10

Al       0.07       6.97      12.09
O       1.14       8.21      11.11
O       1.14       5.50      11.51
O       1.14       7.20      13.65
O      -1.00       7.20      10.53
O      -1.00       8.21      13.07
O      -1.00       5.50      12.67
C       2.10       8.00      10.31
C       2.11       4.91      12.09
C       2.10       8.00      13.87
