14

Zn       6.64       5.43       8.85
C       5.71       5.38       6.33
C       5.98       5.44      11.38
Zn       3.95       5.40       8.91
O       3.64       3.48       9.07
O       5.90       3.51       8.83
O       7.11       5.45      10.74
O       4.85       5.42      10.81
O       5.87       7.36       8.83
O       3.61       7.33       9.07
O       6.86       5.41       6.91
O       4.58       5.42       6.93
C       4.79       2.90       8.99
C       4.75       7.93       9.02
