14

Cu       4.62       7.57      17.37
Cu       6.33       7.57      19.12
C       6.70       9.36      16.92
O       7.19       6.16      18.04
O       5.62       6.20      16.38
O       3.76       6.15      18.45
O       5.33       6.20      20.11
C       4.25       5.77      19.56
C       6.70       5.77      16.92
O       7.19       8.98      18.04
O       3.76       8.98      18.45
O       5.33       8.94      20.11
C       4.25       9.36      19.56
O       5.62       8.94      16.38
