18

Mg       3.06      15.56      10.09
Mg       5.37      16.60       8.59
Mg       0.76      14.79       8.44
C       3.38      18.59       9.88
C      -1.23      14.91       6.07
C       1.07      13.44      11.16
O      -0.09      18.01       8.69
O       2.21      14.16       7.17
O       4.51      14.77      11.26
O       1.53      16.52       9.11
O       3.83      15.27       8.25
O       6.13      15.15       9.76
O       3.97      17.38       9.85
O      -0.64      15.48       7.13
O       1.66      14.08      10.14
C       1.10      17.75       9.05
C       3.40      14.61       7.21
C       5.70      14.59      10.85
