11

C      20.46       9.05      17.53
Zn      17.72      10.23      17.06
C      18.06      13.20      16.60
O      16.90      10.12      15.25
O      17.24       9.57      18.88
N      19.58       9.50      16.61
N      18.01      12.21      17.51
C      19.97       9.50      15.32
C      18.21      12.54      18.81
C      15.70      10.61      15.28
C      17.05       8.29      18.85
