18

Al       4.72      11.29      17.74
O       3.02      10.55      17.66
Al       1.37      11.43      17.72
O       6.37      12.18      17.80
H       2.93       9.64      17.30
H       6.28      13.08      18.16
C       3.08      12.76      19.69
O       1.92      12.82      16.46
C       6.43       9.97      15.77
O       5.26       9.90      19.00
C       3.10      13.14      16.06
O       4.20      12.37      19.24
C       6.44       9.58      19.40
O       0.86      10.35      16.22
O       4.17      12.61      16.46
O       0.83      10.11      19.00
O       5.28      10.18      16.29
O       1.93      12.54      19.17
