50

O       4.56       5.60      22.50
Cd       4.60       2.14      20.82
O       2.58       5.04      25.65
Cd       3.25       4.20      23.61
C       5.41       1.98      24.12
O       1.36       5.72      23.90
O       4.13       2.36      18.61
O       6.79       1.34      20.31
O       4.09      -0.18      20.61
C       5.26       5.35      21.47
H       4.26       0.38      18.03
H       5.17       3.69      16.82
H       5.36       3.10      15.12
C       1.65       5.76      25.13
H       3.75       3.49      15.74
H       4.55      -0.34      15.98
C       4.32       1.45      17.76
H       3.98       0.78      14.70
C       4.73       3.08      16.02
H       5.73       0.64      15.05
C       4.72       0.63      15.50
H       7.67       2.57      21.71
C       7.70       1.64      21.11
H       9.91       0.51      23.08
C       9.80       1.28      22.30
H      10.78       1.42      21.81
C       8.99      -0.38      20.65
H       9.50       2.23      22.77
C       4.87      -1.04      21.10
H       8.15      -0.55      19.97
H       9.92      -0.36      20.07
C       5.59      -3.32      21.58
H       9.05      -1.20      21.38
C       3.37      -2.83      20.50
H       5.82      -0.76      21.57
H       6.44      -2.80      22.04
N       4.59       1.70      16.48
H       5.13      -3.97      22.34
N       8.79       0.89      21.33
H       5.96      -3.95      20.76
N       4.61      -2.35      21.09
H       3.37      -2.69      19.41
O       1.81       2.22      23.77
H       3.26      -3.90      20.72
O       2.57       2.82      21.75
H       2.52      -2.28      20.91
C       1.89       2.04      22.52
O       5.23       1.54      22.94
O       4.96       3.06      24.61
O       5.40       4.24      20.86
