18

Mg       0.20      -1.03      16.83
C      -0.12       1.45      15.05
Mg      -2.08       0.71      17.37
Mg       2.49       0.31      15.60
O       3.36       1.04      18.77
O       1.77       0.15      17.48
O      -0.69      -0.27      18.48
C      -0.14       0.13      19.63
C       2.17       0.60      18.63
C       2.15      -2.70      15.20
O       1.07       1.35      14.60
O      -0.52       0.69      16.02
C      -2.40      -2.07      16.11
O       3.88       1.76      15.88
O      -1.22      -2.41      16.41
O       4.06      -0.85      16.28
O       1.59      -1.50      15.43
C       4.44       2.56      14.96
