23

Zn      12.90      14.09      10.13
Zn      13.05      12.32       7.48
Zn      11.40      15.08       7.45
Zn      14.59      15.16       7.62
C      12.90      11.15      10.19
C      10.59      12.68       5.87
C      10.32      15.54      10.16
C      12.99      17.18       6.21
C      15.48      15.57      10.41
C      15.61      12.89       6.13
O      12.98      14.17       8.17
O      12.90      12.26      10.83
O      11.62      12.01       6.19
O      10.22      15.70       8.89
O      12.90      11.00       8.92
O      11.27      14.97      10.80
O      10.32      13.87       6.32
O      11.86      16.56       6.24
O      15.74      15.65       9.14
O      14.02      16.90       6.89
O      14.45      15.00      10.91
O      14.84      12.06       6.72
O      15.62      14.16       6.28
