23

Zn      11.93       9.69      16.07
Zn       9.68       9.69      18.37
Zn       9.68      11.92      16.07
Zn      11.93      11.92      18.37
C      10.80       7.25      17.22
C       7.24      10.80      17.22
C      10.80      10.80      13.61
O      10.80      10.80      17.22
O      11.81       7.82      16.68
C      14.37      10.80      17.22
O       7.80      10.27      18.23
O       9.80       7.82      17.76
O      11.43       9.85      14.19
C      10.80      10.80      20.83
O      10.18      11.76      14.19
O       7.80      11.34      16.21
O       9.80      13.79      16.68
O      13.81      10.27      16.21
O      10.18       9.85      20.25
O      13.81      11.34      18.23
O      11.81      13.79      17.76
O      11.43      11.76      20.25
C      10.80      14.35      17.22
