9

Zn       3.82      18.79       7.20
N       2.39      17.32       7.38
C       1.70      20.53       5.88
C       3.38      21.70       6.97
N       2.82      20.53       6.62
Cl       5.06      18.11       5.47
Cl       4.64      19.35       9.18
C       1.41      17.36       8.30
C       2.50      16.23       6.59
