36

Zn       7.13      12.04       9.09
Zn       9.85      16.14       8.79
Zn       9.66      13.47      10.59
Zn       7.23      14.99       7.20
C       9.21      11.18      12.60
C       9.46      13.83       5.48
C      11.24      14.56       6.58
N       7.80      11.27      10.91
N       8.77      15.12      11.32
N       6.31      14.85       8.97
N       8.77      16.23      10.52
N       6.40      13.75       9.78
N       7.51      16.99       7.18
N       8.83      11.91      11.54
N       6.13      12.35       7.10
N      11.56      15.62       9.83
N       9.92      12.42       8.88
N       9.04      14.45       6.59
N      10.13      14.90       7.27
N       8.91      11.81       8.21
N       6.26      13.43       6.30
N      11.45      14.45      10.55
N       8.61      17.49       7.84
C       7.55      10.14      11.59
C       9.39      10.70       7.61
C       6.33      13.01       5.02
C       8.37      18.78       8.13
C      12.63      14.19      11.14
C       9.09      15.50      12.57
C       5.30      15.62       9.41
C       9.08      17.30      11.29
C       6.13      11.25       6.31
C       5.44      13.84      10.71
C      12.81      16.08       9.99
C       6.61      17.99       7.07
C      11.04      11.67       8.72
