36

Zn       4.68       6.34       8.65
Zn       2.34       2.42       8.26
Zn       2.50       4.91      10.76
Zn       4.69       3.65       6.29
C       5.39       7.50      11.46
C       2.79       8.62       9.21
C       5.43       6.20       4.65
C       4.97       1.33       9.15
C      -0.31       5.15       9.55
C       2.69       2.37      12.42
C       7.55       3.62       7.38
C       2.29       0.79      10.92
C       5.28       7.84       6.13
C       7.31       5.03       9.08
C       5.77       0.69       7.19
C       4.43       5.89      12.66
C      -0.25       3.82       7.77
C       1.95       7.97      11.15
C       2.31       3.72       4.49
C       1.05       2.09       5.34
N       5.12       6.46      10.65
N       2.43       2.97      11.26
N       6.26       3.97       7.47
N       2.17       1.98      10.31
N       6.11       4.84       8.52
N       4.77       1.54       6.94
N       4.52       5.46      11.38
N       4.77       6.72       6.68
N       0.98       3.88       8.32
N       2.34       6.90      10.47
N       2.85       3.31       5.65
N       2.08       2.30       6.18
N       2.88       7.29       9.25
N       4.86       5.70       5.75
N       0.94       4.70       9.42
N       4.26       1.93       8.18
