23

Zn      11.05      -1.63       9.69
Zn      12.40       0.19       7.62
Zn       9.11      -0.19       7.62
Zn      10.46       1.63       9.69
C      12.88       2.85       8.65
C       8.63      -2.85       8.65
O      13.40       1.71       8.38
O       8.11      -1.71       8.38
O      11.63       3.02       8.93
O       9.88      -3.02       8.92
O      10.76       0.00       8.65
O      13.63      -1.35       7.71
O       9.66      -0.32       5.72
O       8.64       2.37       9.60
O      10.76      -1.14      11.58
O      10.75       1.14      11.58
O       7.88       1.35       7.71
O      11.85       0.32       5.72
O      12.87      -2.37       9.59
C       7.79       2.21       8.65
C      10.76       0.00      12.16
C      10.76       0.00       5.15
C      13.72      -2.21       8.65
