14

Zn      -2.23      -4.81       9.02
Zn      -3.76      -3.71       7.10
O      -4.30      -3.18       9.05
O      -2.93      -4.03      10.65
O      -2.27      -4.91       6.25
O      -1.47      -2.95       8.32
O      -2.85      -2.02       6.79
O      -0.90      -5.69       7.89
C      -3.94      -3.30      10.27
O      -3.81      -6.10       8.57
O      -5.14      -5.07       7.03
C      -1.19      -5.44       6.66
C      -4.85      -6.04       7.84
C      -1.84      -1.99       7.58
