20

Cu      13.32       7.69      13.02
C      16.12       7.22      13.11
Cu      14.61       8.44      11.01
O      13.13       5.97      12.08
O      14.28       6.62      10.23
H      12.35       8.02      15.47
C      14.32      10.35      13.11
O      16.20       7.74      11.95
O      15.05       7.06      13.79
H      14.82       9.45       8.55
C      11.81       8.90      10.92
O      14.80      10.16      11.94
O      13.65       9.50      13.79
O      11.73       8.39      12.08
O      12.88       9.06      10.23
H      15.59       8.11       8.55
O      12.37       7.14      15.05
O      15.57       8.99       8.97
H      13.13       6.68      15.47
C      13.61       5.78      10.91
