18

Al       6.61       5.94       7.30
Al       9.93       5.93       7.32
H       4.95       4.56       8.41
H       8.28       7.35       6.26
O       7.10       4.08       7.16
O       9.44       6.42       9.11
O       3.89       7.73       7.04
O       6.00       5.86       5.47
O       6.12       7.80       7.41
O       3.77       5.46       5.53
C       8.23       3.53       7.36
C       8.31       6.33       9.70
C       4.99       8.34       7.21
O       8.27       6.47       6.67
C       4.88       5.61       4.92
O       9.32       4.13       7.61
O       7.21       6.00       9.13
O       4.95       5.41       7.96
