15

C       9.31      17.13       0.56
Cu      11.11      18.76      -1.08
Cu      14.04      18.75      -2.28
N      11.34      16.33       0.26
N      10.50      17.37      -0.03
N      11.66      20.18      -2.13
C      11.03      21.30      -2.54
N      12.92      20.17      -2.66
Cu      13.04      16.32      -0.45
C      10.67      15.45       1.03
N      14.75      16.29      -1.16
C      15.75      15.39      -1.08
N      15.18      17.34      -1.92
C      16.45      17.08      -2.31
C      13.07      21.29      -3.41
