15

Cu       3.61      27.00       7.12
N       4.91      29.20       8.26
N       3.77      28.43       8.27
Cu       6.09      28.97       6.86
Cu       5.61      26.63       4.73
N       3.37      25.58       5.97
N       4.32      25.34       5.00
N       6.81      27.98       4.36
N       7.13      28.90       5.33
C       2.92      28.96       9.17
C       4.76      30.19       9.16
C       3.88      24.33       4.23
C       2.35      24.72       5.78
C       7.96      29.82       4.79
C       7.44      28.34       3.23
