14

O       9.26       2.02      30.98
O       9.26       2.02      33.27
O       9.26      -2.02      30.98
O       9.26      -2.02      33.27
C      11.84      -0.00      32.13
Zn       9.26      -0.00      30.83
O       7.25      -0.00      30.98
C       9.26       2.58      32.13
C       9.26      -2.59      32.13
Zn       9.26      -0.00      33.43
C       6.68      -0.00      32.13
O       7.25      -0.00      33.27
O      11.28      -0.00      30.98
O      11.28      -0.00      33.27
