20

Zn       4.48       6.48       8.95
Zn       4.19       9.57       8.92
N       3.87      11.64       8.89
N       4.64       4.37       8.71
O       4.44       6.80       6.89
O       4.80       6.77      10.98
O       4.05       9.03       6.95
O       4.40       8.99      10.89
O       2.56       6.92       9.48
O       6.36       7.43       8.77
O       2.22       9.14       9.20
O       6.25       9.69       8.67
C       4.38       7.95       6.36
C       4.54       7.89      11.53
C       1.85       7.97       9.56
C       6.86       8.58       8.80
C       3.53       3.63       8.41
C       5.86       3.75       8.79
C       3.01      12.16       7.96
C       4.72      12.42       9.62
