10

Al       3.97      -5.04       8.73
C       5.95      -5.04      10.77
C       5.95      -6.81       7.70
C       5.95      -3.26       7.71
O       5.02      -4.09       7.43
O       5.02      -4.39      10.19
O       5.02      -6.63       8.55
O       2.91      -3.45       8.56
O       2.91      -5.98       7.43
O       2.91      -5.69      10.19
