20

Zn       5.33       8.15      13.05
Zn       5.29       5.38      13.05
N       5.26       3.34      13.07
N       5.33      10.20      13.11
O       5.59       7.78      11.04
O       5.32       5.53      10.99
O       3.27       5.77      12.95
O       3.29       8.03      12.72
O       5.26       5.54      15.09
O       5.02       7.79      15.04
O       7.35       7.93      13.31
O       7.33       5.68      13.04
C       5.47       6.67      10.44
C       2.72       6.91      12.81
C       5.10       6.67      15.64
C       7.91       6.81      13.13
C       4.42      10.84      12.36
C       6.15      10.85      13.93
C       6.15       2.69      13.85
C       4.35       2.67      12.35
