23

Zn      23.15      18.67      16.97
Zn      21.63      19.64      14.27
Zn      19.97      18.59      16.79
Zn      21.53      21.43      16.90
O      21.57      19.58      16.24
O      24.46      18.37      15.53
C      24.18      18.23      14.28
C      21.56      16.61      18.24
C      23.98      21.05      18.42
O      22.70      16.91      17.74
O      19.89      19.07      13.58
O      23.05      18.40      13.73
C      19.17      18.12      14.05
C      21.61      22.54      14.24
O      23.93      19.78      18.40
O      22.06      21.47      13.73
O      20.50      17.31      18.20
O      19.21      17.66      15.24
O      18.66      19.83      17.59
O      20.08      21.51      18.23
O      23.26      21.85      17.73
O      21.22      22.72      15.45
C      18.95      20.92      18.19
