54

Zr      12.48      -4.32      12.45
Zr      12.48      -0.15      15.34
Zr      14.19      -3.23      15.33
Zr      10.76      -1.24      12.46
Zr      10.69      -3.24      15.34
Zr      14.26      -1.23      12.45
O      13.91      -5.99      12.97
H      12.45      -5.44      15.05
O      16.29      -2.96      14.86
O      11.04      -4.42      10.70
H      12.50      -2.27      10.48
O      13.61      -4.39      17.07
H      15.26      -0.62      15.04
O      13.83      -0.10      17.15
O      12.51      -2.28      11.45
O      14.45      -1.06      14.71
O      11.12       1.56      14.76
O      12.44      -4.54      14.70
O      12.44      -2.19      15.69
O      11.03      -3.11      13.30
O      10.50      -1.06      14.71
O      13.92      -3.10      13.28
O      12.51      -0.54      13.31
O      11.34      -0.01      10.77
O       8.66      -1.59      12.88
O      13.61       0.05      10.68
H       9.70      -0.60      15.00
C      10.10      -6.10      13.93
C      10.20      -0.98      17.61
C      14.75       1.69      13.77
C      14.85      -3.55      10.26
C      14.76      -6.11      13.92
C      10.19      -3.57      10.26
C      10.29       1.69      13.79
C      14.67      -0.96      17.60
C      12.50      -4.74      17.60
C      16.95      -2.34      13.95
C      12.45       0.36      10.25
C       8.00      -2.22      13.78
O      15.08      -2.40      10.78
O       8.52      -2.88      14.74
O       9.87      -5.21      14.83
O       9.96      -2.12      17.09
O      14.99       0.80      12.88
O      10.96      -6.00      12.99
O      11.05      -0.13      17.18
O      13.91       1.58      14.72
O      13.99      -4.40      10.68
O      14.98      -5.23      14.81
O       9.97      -2.42      10.77
O      10.06       0.81      12.90
O      14.90      -2.10      17.09
O      11.34      -4.45      17.16
O      16.43      -1.67      12.99
