18

Al       0.90       5.70       8.79
Al      -2.49       5.68       8.79
O      -1.92       7.14       7.69
O      -0.79       4.89       8.70
H       2.61       7.15       9.71
H      -0.78       3.97       8.99
C       2.60       4.41       6.78
C       2.57       3.80      10.32
C      -0.82       7.00      10.81
C      -0.78       7.54       7.26
O      -3.06       4.18       9.90
O       1.47       4.68       7.29
O       0.36       7.08       7.58
O       1.43       4.25       9.99
O       0.32       6.79      10.29
O      -3.04       4.75       7.23
O       2.60       6.48       9.00
O      -1.96       6.63      10.38
