18

Al      -0.99      13.41      18.60
O      -1.52      14.72      17.30
Al       2.37      13.45      18.71
O       1.73      12.32      20.12
O       0.72      13.37      17.82
C       0.67      15.43      20.00
O      -2.65      13.52      19.49
C      -2.74      11.45      17.27
H      -2.57      14.03      20.31
C       0.61      11.70      20.34
O       1.84      14.98      19.80
O      -1.62      12.09      17.35
C      -2.69      15.11      16.87
O      -0.48      12.05      19.79
H       0.82      13.62      16.89
O      -3.79      14.60      17.29
O      -0.43      14.86      19.72
O       2.88      11.82      17.80
