24

Al      15.08       6.43      13.42
Al      12.09       7.59      13.45
Al      14.33       9.56      13.47
O      13.99       5.76      11.83
O      13.96       5.54      14.67
O      11.42       8.90      14.60
O      15.74       9.61      14.63
O      15.97       7.37      14.93
O      11.90       6.44      14.93
O      13.26      10.17      14.96
O      13.82       7.88      13.43
O      11.64       8.76      11.95
O      15.48       9.60      11.98
H      16.79       5.00      12.68
C      16.02       8.54      11.51
C      12.78       5.79      11.52
C      12.26       9.83      11.62
C      16.11       8.57      15.30
C      12.91       5.74      15.34
O      11.80       6.23      12.25
C      12.13       9.70      15.32
O      16.18       5.08      13.43
O      16.10       7.41      12.08
O      13.13      10.44      12.33
