23

Zn      27.59      10.81       9.66
Zn      29.27       9.76       7.13
Zn      27.51      12.46       6.91
Zn      26.08       9.62       7.10
C      27.75       7.75       5.58
C      27.04      13.71       9.52
C      30.17       9.44       9.91
C      24.93      11.93       5.70
C      30.20      12.20       5.71
C      25.26       9.04       9.89
O      26.00      12.60       5.64
O      30.44      11.02       6.12
O      25.09       8.88       8.63
O      29.15      12.89       5.92
O      26.20       9.67      10.46
O      29.31      10.24      10.40
O      24.73      10.81       6.27
O      28.87       8.25       5.96
O      27.24      13.85       8.27
O      27.62      10.67       7.70
O      26.59       8.19       5.88
O      27.13      12.64      10.21
O      30.28       9.10       8.68
