11

Zn       4.36       9.97      11.86
N       2.96       8.93      10.72
N       2.96      11.00      13.00
O       4.99       8.54      13.07
O       4.99      11.40      10.65
C       2.81       9.12       9.40
C       2.21       7.99      11.33
C       2.81      10.81      14.32
C       2.21      11.94      12.39
C       5.88       9.09      13.84
C       5.88      10.84       9.87
