23

Zn      27.65      14.54      12.12
Zn      29.27      17.32      12.10
C      27.68      19.37      13.52
Zn      26.06      17.33      12.12
Zn      27.62      16.37       9.50
C      25.05      17.81       9.38
O      30.34      16.15      13.27
O      29.33      14.12      13.06
O      27.79      14.54       8.80
O      27.45      13.25      10.65
O      24.96      16.16      13.25
O      26.16      14.22      13.35
O      29.12      17.40       8.77
O      30.39      17.92      10.59
O      26.54      18.90      13.19
O      28.82      18.89      13.18
O      24.93      17.97      10.65
O      25.98      17.16       8.79
O      27.65      16.39      11.47
C      30.24      14.90      13.50
C      27.62      13.42       9.39
C      25.15      14.96      13.64
C      30.15      17.91       9.34
