18

O       1.99       1.22       1.38
O       2.02       1.28      -1.42
Al       1.47       0.06      -0.07
Al       4.82       0.07      -0.05
O       0.95      -1.28       1.20
O       0.94      -1.09      -1.50
O       3.15      -0.77      -0.06
O      -1.34      -1.11      -1.46
O      -1.33      -1.22       1.33
O      -0.20       0.87       0.04
C       3.13       1.59       1.83
C       3.16       1.63      -1.87
H       3.12      -1.60       0.45
H      -0.19       1.58       0.70
C      -0.21      -1.45      -1.96
C      -0.16      -1.59       1.73
O       4.29       1.32      -1.37
O       4.27       1.30       1.34
