10

Al       0.04      -4.01       7.00
O      -1.01      -2.97       5.77
O      -1.01      -3.45       8.52
O      -1.02      -5.56       6.73
O       1.11      -2.43       6.87
O       1.11      -4.90       5.69
O       1.11      -4.68       8.43
C      -1.98      -2.19       6.04
C      -1.98      -4.08       9.05
C      -1.96      -5.72       5.87
