69

Cd       5.55       0.00       0.00
C       5.02       4.90       1.25
Cd       4.50      -3.13       1.67
C       6.16      -5.69      -2.57
Cd       6.60       3.13      -1.67
C       4.94       5.69       2.57
C       5.61      -7.08      -2.22
C       5.49       7.08       2.22
C       3.85      -7.81      -0.51
C       7.24       7.81       0.51
N       2.09      -3.02       1.78
N       9.00       3.02      -1.78
N       8.47      -1.30       0.95
N       2.63       1.30      -0.95
N       7.16      -1.49       0.94
N       3.93       1.49      -0.94
N       6.87      -2.69       1.46
N       4.22       2.69      -1.46
N       8.00      -3.31       1.81
N       3.10       3.31      -1.81
N       6.34       4.34      -3.64
N       4.75      -4.34       3.64
N       4.53       1.15       2.98
H       5.83      -3.84      -1.38
N       6.57      -1.15      -2.98
H       5.26       3.84       1.38
N       4.62       0.11       2.16
H       7.01      -4.94      -0.67
N       6.47      -0.11      -2.16
H       4.09       4.94       0.67
N       4.40      -1.03       2.83
H       5.51      -5.21      -3.31
N       6.69       1.03      -2.83
H       5.58       5.21       3.31
N       4.15      -0.76       4.10
H       7.17      -5.74      -2.98
N       6.94       0.76      -4.10
H       3.92       5.74       2.98
N       4.32      -1.96      -0.31
H       5.00      -7.52      -3.03
N       6.78       1.96       0.31
H       6.09       7.52       3.03
N       3.83      -2.39      -1.33
H       6.39      -7.81      -1.97
N       7.27       2.39       1.33
H       4.70       7.81       1.97
H       4.22      -8.81      -0.74
N       3.36      -2.81      -2.31
H       6.87       8.81       0.74
N       7.73       2.81       2.31
N       4.77      -6.82      -1.05
H       2.85      -7.69      -0.94
N       6.32       6.82       1.05
H       8.25       7.69       0.94
O       4.43      -5.26       0.59
H       3.78      -7.67       0.58
O       6.66       5.26      -0.59
H       7.32       7.67      -0.58
C       1.24      -3.94       2.27
C       9.85       3.94      -2.27
C       1.57      -1.88       1.27
C       9.52       1.88      -1.27
C       5.87       3.75      -4.76
C       5.23      -3.75       4.76
C       6.68       5.65      -3.70
C       4.41      -5.65       3.70
C       5.01      -5.63      -0.47
C       6.09       5.63       0.47
C       6.08      -4.90      -1.25
