14

Zn      -2.19      -3.25       7.87
Zn      -3.73      -5.46       7.72
C      -1.79      -6.02       9.39
C      -4.09      -3.11       9.74
C      -4.62      -3.68       5.95
C      -1.04      -4.78       6.11
O      -1.50      -4.82       9.10
O      -2.83      -6.66       8.96
O      -3.11      -2.38       9.36
O      -4.46      -4.20       9.22
O      -3.75      -2.95       6.53
O      -4.90      -4.90       6.28
O      -0.72      -3.64       6.63
O      -2.12      -5.41       6.35
