84

Ti       4.71      11.48      19.88
Ti       4.71      14.55      21.65
Ti       4.71      11.48      23.43
Ti      -1.26      13.52      23.43
Ti      -1.26      10.45      21.65
Ti      -1.26      13.52      19.88
Ti       1.26      11.48      19.88
Ti       1.26      11.48      23.43
Ti       1.26      14.55      21.65
Ti       7.24      13.52      23.43
Ti       7.24      13.52      19.88
Ti       7.24      10.45      21.65
H       2.99       9.59      20.69
H       2.99      14.79      19.61
H       2.99      13.12      24.65
H       8.96      15.41      22.61
H       8.96      10.22      23.69
H       8.96      11.88      18.65
H       2.99      13.12      18.65
H       2.99       9.59      22.61
H       2.99      14.79      23.69
H       8.96      11.88      24.65
H       8.96      15.41      20.69
H       8.96      10.22      19.61
C       5.97       8.70      19.46
C       5.97      16.30      19.46
C       5.97      12.50      26.04
C      -0.00      16.30      23.84
C      -0.00       8.70      23.84
C      -0.00      12.50      17.27
C       5.97      16.30      23.84
C       5.97       8.70      23.84
C       5.97      12.50      17.27
C      -0.00       8.70      19.46
C      -0.00      16.30      19.46
C      -0.00      12.50      26.04
O       5.14       9.59      19.10
O       5.14      16.17      20.41
O       5.14      11.74      25.45
O      -0.83      15.41      24.20
O      -0.83       8.84      22.90
O      -0.83      13.26      17.86
O       0.83      11.74      17.86
O       0.83       9.59      24.20
O       0.83      16.17      22.89
O       6.81      13.26      25.45
O       6.81      15.41      19.10
O       6.81       8.84      20.41
O       6.81      15.41      24.20
O       6.81       8.84      22.90
O       6.81      13.26      17.86
O       0.83       9.59      19.10
O       0.83      16.17      20.41
O       0.83      11.74      25.45
O      -0.83      13.26      25.45
O      -0.83      15.41      19.10
O      -0.83       8.84      20.41
O       5.14      11.74      17.86
O       5.14       9.59      24.20
O       5.14      16.17      22.89
O       2.99      10.43      20.21
O       2.99      14.78      20.58
O       2.99      12.29      24.16
O       8.96      14.57      23.09
O       8.96      10.22      22.72
O       8.96      12.71      19.14
O       2.99      12.29      19.14
O       2.99      10.43      23.09
O       2.99      14.78      22.72
O       8.96      12.71      24.16
O       8.96      14.57      20.21
O       8.96      10.22      20.58
O       6.86      11.65      20.19
O       6.86      14.19      21.65
O       6.86      11.65      23.12
O       0.89      13.35      23.12
O       0.89      10.81      21.65
O       0.89      13.35      20.19
O      -0.89      11.65      20.19
O      -0.89      11.65      23.12
O      -0.89      14.19      21.65
O       5.08      13.35      23.12
O       5.08      13.35      20.19
O       5.08      10.81      21.65
