20

Zn       3.60       5.60       5.52
Zn       6.47       5.63       5.51
C       5.02       5.72       8.14
C       5.04       3.00       5.49
C       0.82       4.66       6.47
C      -0.61       4.67       6.47
C      -0.59       6.30       4.82
C       5.02       5.59       2.91
C       0.82       6.29       4.82
C       5.05       8.22       5.45
N      -1.29       5.51       5.63
N       1.51       5.50       5.62
O       3.88       5.65       7.56
O       6.15       5.73       7.56
O       3.90       3.57       5.48
O       6.17       3.59       5.53
O       3.89       5.64       3.48
O       6.17       5.57       3.47
O       3.91       7.64       5.50
O       6.19       7.65       5.42
