23

Zn       7.52       9.20      10.25
O       7.59      12.01       8.48
Zn       9.05      10.79       7.93
O      11.84       7.69       9.89
Zn      10.70       9.23      10.22
O       9.09       9.21       9.08
Zn       9.11       7.59       7.96
O      10.68      11.87       8.14
O       7.42       6.60       8.19
O      11.63      10.96      10.01
O       6.48       7.54      10.05
O       6.29      10.68       9.81
O      10.68       6.50       8.32
O       8.88      10.36       6.02
C       9.00       9.21       5.47
C       9.09       9.30      12.72
C       6.54      11.73       9.14
C      11.66       6.69       9.11
C      11.55      11.81       9.06
C       6.55       6.67       9.12
O      10.22       9.17      12.15
O       9.12       8.08       6.04
O       7.95       9.42      12.15
