20

Zn      -0.77       9.59      13.62
Zn      -1.71       6.98      12.54
O      -2.64       6.96      14.35
O      -2.23       9.08      15.04
O       0.31       8.11      14.61
O      -0.14       6.12      13.62
C       0.18       8.67      10.95
C      -2.73       9.74      11.57
C       0.85      11.03      15.62
C      -1.17      12.06      15.09
C      -2.65       7.90      15.21
C       0.25       6.84      14.58
C      -3.33       5.54      10.54
C      -1.31       4.51      11.06
N      -0.21      11.16      14.80
N      -2.26       5.41      11.36
O       0.16       9.62      11.81
O      -0.25       7.49      11.12
O      -2.78       8.46      11.55
O      -2.34      10.46      12.53
