11

Cu       1.57      -4.90       8.49
O       2.33      -4.12      10.16
C       1.57      -4.44      11.16
C       2.37      -7.78       8.19
C       0.76      -2.02       8.80
N       3.53      -6.70       9.70
N      -0.39      -3.10       7.29
N       2.58      -6.58       8.73
N       0.55      -3.23       8.25
O       0.81      -5.68       6.83
C       1.56      -5.36       5.82
