14

Zn       3.99       3.85       8.71
Zn       2.59       4.83       6.58
C       5.17       6.07       7.84
C       4.39       3.19       5.60
C       2.15       2.06       8.22
O       5.32       5.22       8.81
O       4.70       3.12       6.82
O       3.44       3.92       5.11
O       3.13       2.13       9.05
O       1.83       2.91       7.35
O       2.34       4.97       9.35
O       1.24       5.79       7.54
C       1.40       5.62       8.81
O       4.22       6.04       7.00
