23

Zn      12.08      12.40       8.15
Zn      13.57      15.20       8.13
Zn      13.66      13.34       5.54
Zn      15.27      12.42       8.10
O      13.66      13.35       7.49
O      16.34      13.68       9.18
O      10.97      13.51       9.32
O      11.07      11.69       6.62
O      11.86      15.59       9.00
O      15.00      12.10       4.82
O      13.62      16.44       6.62
O      14.86      10.84       9.19
O      14.15      15.12       4.85
O      12.58      10.86       9.25
O      16.42      11.87       6.59
O      15.02      15.53       9.41
O      11.92      12.78       4.81
C      16.08      14.85       9.63
C      11.09      12.00       5.38
C      11.01      14.78       9.51
C      16.10      11.72       5.36
C      13.87      16.26       5.38
C      13.73      10.42       9.60
