14

C      -2.54      -5.51       8.52
Zn      -5.04      -5.52       6.47
C      -4.95      -2.96       7.23
Zn      -5.07      -5.50       9.23
C      -7.58      -5.24       8.31
C      -5.22      -8.05       7.34
O      -3.14      -5.66       7.42
O      -3.14      -5.47       9.65
O      -4.94      -3.56       6.09
O      -5.01      -3.55       8.33
O      -6.98      -5.25       7.20
O      -7.01      -5.29       9.45
O      -5.10      -7.49       6.20
O      -5.38      -7.42       8.42
