23

Zn       7.55       8.98      15.49
Zn       7.41      10.78      18.22
Zn       9.01      11.81      15.64
Zn       5.78      11.67      15.65
O       7.44      10.79      16.25
O       7.42       7.62      16.92
O       8.76      11.97      18.97
O      10.05      10.75      14.36
C       7.58       7.82      18.17
O       9.26       8.62      14.58
C      10.11       9.50      14.18
O       7.81       8.92      18.75
C       5.02       9.30      14.08
C       9.83      12.39      18.41
O       6.13       8.66      14.17
O       5.65      11.27      18.93
C       4.83      12.09      18.39
O      10.12      12.26      17.18
O       8.47      13.46      14.71
C       7.31      13.77      14.26
O       4.68      10.32      14.75
O       6.23      13.12      14.39
O       4.79      12.42      17.16
