20

Zn       3.82       5.89       6.98
Zn       6.78       6.21       7.52
C       5.74       3.55       7.32
C       1.02       6.24       7.93
C       5.59       6.11       4.59
C       5.02       6.00       9.91
C       4.86       8.56       7.18
C       9.50       7.23       8.47
C       1.11       4.88       6.03
C       9.58       5.87       6.57
N       1.75       5.55       7.03
N       8.85       6.55       7.46
O       4.58       4.06       7.23
O       6.02       8.04       7.27
O       6.84       4.19       7.41
O       3.76       7.92       7.08
O       4.39       6.12       5.00
O       6.21       5.99       9.50
O       6.63       6.03       5.33
O       3.98       6.07       9.17
