14

Zn      10.07      14.24       0.00
C       7.82      14.23      -1.83
Zn       8.56      12.11       0.00
C      10.81      12.12      -1.83
C      10.81      12.12       1.83
C       7.82      14.23       1.83
O      11.14      13.28      -1.42
O       7.49      13.06       1.43
O       8.81      14.93       1.42
O       7.49      13.07      -1.42
O       8.82      14.93      -1.43
O      11.14      13.29       1.43
O       9.82      11.41       1.42
O       9.82      11.42      -1.43
