10

Al       0.04      20.95       4.03
O      -1.00      21.68       2.61
O      -1.00      19.35       4.12
O      -1.00      21.83       5.38
O       1.10      20.42       2.53
O       1.10      22.53       4.32
O       1.10      19.92       5.25
C      -1.96      19.10       4.92
C      -1.96      22.65       5.19
C      -1.96      21.11       1.99
