20

Zn       7.58       7.75       9.83
Zn       7.58      10.50       9.83
C       7.59       9.11      12.43
C       7.58       9.11       7.22
C       6.75       5.01       9.03
C       8.42      13.24      10.63
C       8.42       5.01      10.63
C       6.75      13.24       9.02
C      10.20       9.14       9.84
C       4.97       9.14       9.81
N       7.58       5.69       9.83
N       7.58      12.55       9.83
O       7.89       8.01      11.85
O       7.87      10.20       7.81
O       7.28       8.01       7.80
O       7.30      10.20      11.84
O       9.62       8.03       9.58
O       5.55      10.24       9.55
O       5.55       8.03      10.08
O       9.62      10.24      10.11
