20

Zn       9.32       9.00      31.87
Zn       6.54       9.05      31.85
N       4.48       9.03      31.94
N      11.38       9.00      31.81
O       9.11       6.98      31.59
O       6.88       7.02      31.97
O       6.68       8.88      29.80
O       8.92       9.27      29.86
O       6.89      11.08      31.71
O       9.11      11.04      32.15
O       9.02       8.76      33.90
O       6.79       9.22      33.87
C       7.98       6.42      31.78
C       7.82       9.07      29.25
C       8.01      11.64      31.95
C       7.90       9.00      34.46
C       3.79       8.18      31.15
C       3.83       9.86      32.76
C      12.04       8.00      31.21
C      12.08       9.96      32.44
