23

Zn       5.55       7.32       4.10
Zn       7.94       5.19       3.89
Zn       6.02       5.22       6.51
Zn       8.06       7.56       6.05
C      10.47       6.36       4.79
C       3.36       6.05       5.62
C       6.33       5.96       1.59
C       7.25       6.66       8.73
C       7.14       2.78       5.36
C       6.77       9.90       4.81
O       6.89       6.30       5.12
O       7.50       3.29       4.25
O       7.54       9.41       5.71
O       6.78       3.40       6.41
O       5.96       9.25       4.06
O       5.52       6.71       2.24
O       8.07       7.29       7.98
O       9.88       5.48       4.08
O       4.08       5.15       6.17
O       9.92       7.27       5.50
O       3.79       7.01       4.89
O       7.43       5.47       2.02
O       6.30       5.90       8.33
