13

N       3.75      21.93      17.59
C       4.13      23.10      18.13
C       4.13      22.98      13.27
Zn       3.08      21.61      15.69
N       1.12      21.28      15.94
C       3.94      18.80      15.97
C       4.13      19.25      13.86
N       3.81      19.82      15.05
C       3.89      21.01      18.60
C       0.00      21.84      15.43
C       3.82      24.45      14.83
N       3.64      23.12      14.51
C       0.69      20.32      16.83
