18

Al       6.68       9.35       8.74
Al       3.34       9.35       8.74
H       5.01      10.56       7.44
H       8.35       8.15      10.03
O       5.01       9.90       8.15
O       8.35       8.81       9.32
C       8.35       9.16       6.32
C       8.35      11.78       8.77
C       5.01       9.55      11.16
C       5.01       6.93       8.70
O       6.15       9.50      10.58
O       7.22       9.21       6.90
O       2.81       9.21       6.90
O       7.22      11.20       8.76
O       2.81      11.20       8.76
O       3.88       9.50      10.58
O       6.15       7.51       8.72
O       3.88       7.51       8.72
