11

N       5.17       7.99       7.30
Zn       5.38       9.45       8.72
N       5.21      11.08       7.45
C       3.29      10.43      10.26
O       6.93       9.67       9.85
C       4.03       7.28       7.25
C       6.12       7.77       6.37
C       3.98      11.38       6.98
O       3.56       9.42       9.48
C       6.26      11.82       7.03
C       8.10       9.69       9.29
