20

C       8.16       2.01      25.79
Zn       8.54       5.99      27.42
Zn       9.26       4.28      24.24
N      10.07       4.72      27.16
N       7.73       5.56      24.49
N       9.43       7.79      27.12
N       8.37       2.48      24.53
N      10.46       4.48      25.85
N       7.34       5.79      25.81
O       7.22       5.95      28.86
O      10.58       4.33      22.80
C       7.74       6.08      30.03
C      10.06       4.19      21.62
C      11.19       4.59      27.92
C      10.24       8.56      27.92
C       6.61       5.69      23.74
C       7.55       1.71      23.74
C      11.75       4.22      25.87
C       9.64       8.27      25.87
C       6.05       6.06      25.79
