54

Zr      -3.01       3.78       6.37
Zr      -6.55       1.74       9.25
Zr      -4.78       0.72       6.37
Zr      -4.78       4.80       9.25
Zr      -6.55       3.78       6.37
Zr      -3.01       1.74       9.25
H      -4.78       2.76       4.40
H      -7.57       4.37       8.95
H      -4.78      -0.45       8.95
H      -2.00       4.37       8.95
O      -3.65       5.06       4.65
O      -8.69       2.06       8.71
O      -5.92       0.55      11.03
O      -0.87       3.37       6.85
O      -3.36       0.63       4.65
O      -3.43       6.50       8.71
O      -6.13       4.85      11.03
O      -6.21      -0.93       6.85
O      -7.34       2.60       4.65
O      -2.22      -0.28       8.71
O      -2.30       2.88      11.03
O      -7.27       5.84       6.85
O      -3.36      -0.93       6.85
O      -3.43       4.85      11.03
O      -6.13       6.50       8.71
O      -6.21       0.63       4.65
O      -2.22       2.60       4.65
O      -7.34      -0.28       8.71
O      -7.27       2.88      11.03
O      -2.30       5.84       6.85
O      -0.87       2.06       8.71
O      -5.92       5.06       4.65
O      -8.69       3.37       6.85
O      -3.65       0.55      11.03
O      -2.79       3.91       8.62
O      -4.78       0.46       8.62
O      -6.78       3.91       8.62
O      -4.78       2.76       5.37
O      -6.25       1.92       7.21
O      -4.78       4.45       7.21
O      -4.78       2.76       9.60
O      -3.32       1.92       7.21
C      -4.78       5.40       4.17
C      -9.28       2.72       7.78
C      -4.78       0.21      11.51
C      -0.29       2.72       7.78
C      -2.50       1.44       4.17
C      -2.57       6.68       7.78
C      -6.99       4.04      11.51
C      -7.07      -1.11       7.78
C      -7.07       1.44       4.17
C      -2.50      -1.11       7.78
C      -2.57       4.04      11.51
C      -6.99       6.68       7.78
