19

Fe       3.94      -4.64       8.03
N       2.66      -7.40       8.19
N       5.21      -1.87       7.88
N       5.52      -4.98       9.19
N       2.35      -4.29       6.88
N       4.92      -5.25       6.44
N       2.95      -4.02       9.63
C       4.51      -7.08       9.29
C       3.36      -2.19       6.78
C       5.59      -6.25       9.72
C       2.28      -3.03       6.35
C       6.49      -4.10       9.54
C       1.38      -5.17       6.53
C       4.45      -6.28       5.69
C       3.42      -2.99      10.37
C       6.08      -4.67       6.04
C       1.80      -4.61      10.02
N       3.58      -6.48       8.50
N       4.29      -2.79       7.57
