17

Ni       1.95      -2.88      12.55
C       3.30      -3.39      15.18
O       2.52      -0.88      13.36
C       0.03      -1.00      11.09
N       3.66      -2.96      11.40
O       1.28      -4.57      11.54
C       4.88      -2.74      11.92
N       2.89      -3.97      14.04
H      -0.22      -3.61      13.46
C       0.11      -5.08      11.62
H      -0.21      -2.02      13.30
H       2.96      -0.25      12.72
C       3.56      -3.30      10.09
O       0.23      -2.77      13.81
H       3.11      -0.86      14.13
C       3.19      -5.27      13.83
O       1.08      -1.72      10.98
