18

Al       5.46      19.13      21.30
Al       2.14      19.09      21.27
O       2.68      20.41      22.62
O       4.92      20.32      19.91
O       5.98      17.90      19.95
H       3.80      17.47      21.86
O       4.94      20.41      22.68
H       7.16      20.69      21.94
O       5.99      17.87      22.70
C       3.80      20.58      19.37
O       2.67      20.23      19.83
C       3.80      20.74      23.12
O       3.81      18.31      21.36
C       7.13      17.46      23.10
O       8.26      17.85      22.68
C       7.10      17.48      19.52
O       8.24      17.80      19.98
O       7.13      19.94      21.33
