20

Zn       9.34      12.38       4.94
Zn       9.14      14.46       6.75
C       8.99      11.00       2.34
C       9.49      17.23       7.75
C       9.90       9.62       3.96
C       8.58      15.82       9.35
N       9.43      10.82       3.60
C      11.01      12.17       7.31
C       7.48      12.15       7.29
N       9.05      16.01       8.10
O      10.48      11.47       6.38
O       8.01      13.17       7.86
O      10.83      13.40       7.51
O       7.66      11.78       6.10
O       8.15      13.57       3.82
O      10.34      15.41       5.42
C       7.44      14.51       4.32
C      11.04      14.78       4.55
O       7.50      14.92       5.52
O      10.98      13.53       4.32
