46

Tb      11.76       5.68       6.55
O       8.61       5.15       9.53
C       9.42       3.50       5.77
Tb       4.24       5.73       6.55
Tb       7.93       6.00       7.45
C      16.95       7.91       5.77
O      16.14       6.26       9.53
Tb      15.46       5.41       7.45
O       8.33       8.21       6.76
O      17.29       4.60       5.83
O      15.85       3.19       6.76
O       9.76       6.80       5.83
O      10.61       3.94       5.66
O       3.09       7.47       5.66
O      10.32       5.99       8.40
O      17.84       5.42       8.40
O      12.26       8.00       6.73
O       4.73       3.40       6.73
O       5.10       7.43       7.75
O      12.62       3.97       7.75
C       9.85       5.43       9.48
O      12.33       5.99       4.26
O       4.80       5.42       4.26
C      17.38       5.97       9.48
C      14.50       6.27       3.32
C       6.97       5.13       3.32
C       5.81       7.89       8.72
C      13.33       3.51       8.72
C      13.59       5.86       4.40
C       6.06       5.55       4.40
C      16.79       3.41       5.93
C       9.26       8.00       5.93
C      17.24       2.31       5.05
C       9.72       9.09       5.05
C      13.08       7.89       7.70
C       5.55       3.51       7.70
C      13.43       9.07       8.52
C       5.90       2.33       8.52
O       8.57       3.97       6.60
O      16.09       7.43       6.60
O      14.05       5.41       5.53
O       6.52       6.00       5.53
O      13.56       6.72       8.00
O       6.03       4.68       8.00
O       6.95       7.42       9.02
O      14.47       3.99       9.02
