18

Al      -3.11       6.77       8.68
Al       0.21       6.77       8.68
H      -1.45       7.78      10.13
H      -4.76       5.70       7.26
O      -0.28       7.06       6.84
O      -2.49       6.58       6.88
C      -4.81       6.66      11.09
O      -1.45       7.37       9.25
C      -4.70       9.17       8.52
O       0.70       6.48      10.52
O      -0.41       4.95       8.57
C      -1.51       4.36       8.84
O      -2.63       4.93       9.05
O      -3.58       8.60       8.31
O       0.83       8.58       8.78
O      -3.72       6.95      10.49
C      -1.41       6.89       6.27
O      -4.77       6.17       8.11
