23

Zn      20.19       9.25      12.75
Zn      16.80       9.25      12.75
Zn      18.50       7.62      14.87
Zn      18.50      10.89      14.87
C      18.50       9.25      17.34
C      18.50       9.25      10.29
C      21.01       6.61      13.69
C      15.99      11.89      13.69
C      15.98       6.62      13.69
C      21.01      11.89      13.69
O      17.35       9.25      10.84
O      19.65       9.25      10.84
O      18.50       8.11      16.79
O      18.50      10.40      16.79
O      18.50       9.25      13.77
O      21.35       7.70      13.11
O      15.65      10.81      13.11
O      15.65       7.70      13.10
O      21.34      10.81      13.11
O      16.97      12.06      14.48
O      20.02       6.45      14.47
O      20.02      12.06      14.47
O      16.97       6.45      14.47
