64

Y       8.79       9.59       6.51
Y       6.05      10.99       9.81
Y       5.83      13.93      16.10
Y       8.56      12.52      12.80
C       9.15       6.59       5.06
H       6.19       9.30       5.05
H       7.24      10.10       4.17
H      10.10       9.91       3.66
H       9.24       8.58       3.77
H      11.73       9.07       5.85
H      11.72      10.25       6.88
H       3.37       9.91       9.10
H       3.06      10.94      10.22
C       6.43      11.29      15.34
C       6.13      10.00      12.49
C       8.67      15.23      14.88
C       4.67      14.89      10.54
C       5.74      14.53      12.85
C       4.94      13.48      10.17
H       7.37      13.41      18.44
H       8.43      14.21      17.57
H       4.52      13.60      18.95
H       5.38      14.93      18.84
H       2.89      14.44      16.76
H      11.25      13.60      13.51
H      11.55      12.57      12.39
H       2.90      13.26      15.73
C       5.47      16.92      17.55
O       9.03      11.91       6.36
O       7.50      11.31       7.83
O       7.83      12.44      10.37
O       9.28      14.00      10.98
O       7.09       8.23       7.17
O       5.44       9.30       8.29
O       9.45       9.14       8.62
O       7.73       9.37      10.07
O       9.30      10.36      13.61
O       9.80      10.92      11.52
C       8.19      12.23       7.27
O       9.47       7.46       5.93
C       8.48      13.52      10.12
O       6.89      10.00       5.08
O       9.24       9.56       3.96
O      11.17       9.81       6.21
O       3.68      10.77       9.46
O       5.58      11.60      16.25
O       7.12      12.20      14.78
O       6.79      11.07      12.24
O       5.34       9.52      11.63
C       5.95       8.28       7.73
O       7.53      15.28      15.44
O       9.17      14.21      14.32
C       9.95       8.62      12.07
O       6.89      14.14      12.54
O       5.32      13.15       9.00
C       8.88       8.98       9.76
O       4.82      12.59      11.09
C       9.67      10.03      12.44
O       5.17      14.37      13.99
O       5.15      16.05      16.68
O       7.73      13.51      17.54
O       5.37      13.95      18.65
O       3.45      13.70      16.40
O      10.94      12.74      13.15
