18

Zn       6.41       8.64       8.11
Zn       9.20       8.04       8.13
C       3.32       8.55       8.05
C      12.33       7.75       7.97
C       7.94       7.66       5.63
C       8.29      10.81       7.70
O       9.05       8.40      10.09
O       9.29      10.04       7.65
C       7.91       8.50      10.66
O       5.91       6.55       8.25
C       6.95       5.78       8.33
O       8.13       6.19       8.48
O       6.89       8.16       6.15
O       9.05       7.42       6.20
O       7.06      10.49       7.84
N      11.19       7.66       8.14
N       4.42       8.92       8.02
O       6.77       8.59      10.10
