20

Co      25.59      14.19      13.58
C      25.54      15.93      16.35
C      27.60      14.78      11.54
Co      25.81      12.60      11.98
C      23.80      14.63      11.39
C      25.86       9.82      10.24
N      25.74      15.77      15.03
N      25.65      11.14      10.40
N      26.38      16.89      14.62
N      25.02      11.56       9.29
O      26.96      15.31      12.52
O      24.44      13.65      10.86
O      27.30      13.63      11.06
O      24.09      15.11      12.54
O      27.16      11.59      13.05
O      24.24      13.12      14.58
O      27.10      13.25      14.57
O      24.30      11.60      12.92
C      27.55      12.13      14.14
C      23.85      12.03      14.04
