16

Cu       3.99       6.88       6.87
Si       7.98       6.88       6.87
C       2.86       6.87       4.11
C       5.12       6.88       9.63
C       2.78       6.88       9.56
N       4.01       8.94       6.87
N       3.97       4.82       6.86
N       4.01       6.87       4.81
N       3.97       6.88       8.92
F       6.25       6.81       6.93
F       1.73       6.94       6.80
C       5.20       9.57       6.87
C       2.86       9.64       6.87
C       5.12       4.12       6.86
C       2.78       4.18       6.86
C       5.20       6.87       4.17
