13

C       8.95      18.04       2.40
N      12.01      17.89       4.18
C      12.39      17.78       5.47
C      12.39      13.63       2.93
N       9.38      16.79       2.80
Zn      11.34      16.41       2.95
C      12.39      16.00      -0.00
C       8.26      16.07       3.02
C      12.20      18.06       0.66
N      12.07      16.75       1.08
C      12.16      19.23       3.89
C      12.09      14.24       4.98
N      11.90      14.63       3.67
