18

Al       4.82       5.97       4.99
O       4.28       4.49       3.93
Al       1.48       6.04       4.97
O       7.63       7.52       6.03
O       4.31       7.21       3.59
O       0.96       4.79       6.37
O       5.36       7.44       6.07
O       2.01       4.57       3.89
H       3.17       6.76       6.52
O       3.15       6.13       5.78
H       6.51       5.24       3.44
O       6.50       5.87       4.18
C       3.13       4.07       3.56
C       6.48       7.94       6.40
C       3.18       7.61       3.18
C       6.52       4.39       6.77
O       2.02       7.27       3.56
O       5.37       4.73       6.39
