23

Zn      26.13       8.41      16.24
Zn      27.81       7.37      13.73
Zn      27.92       5.70      16.41
Zn      29.38       8.55      16.22
O      27.79       7.52      15.69
O      24.97       8.93      14.72
C      25.25       8.84      13.47
C      25.31       6.06      17.82
C      27.69      10.57      17.55
O      25.03       7.23      17.37
O      27.77       5.52      13.12
O      26.30       8.35      12.97
O      27.94       4.29      15.04
O      29.51       5.42      17.53
O      26.56      10.05      17.24
O      29.43       8.16      12.98
O      28.85      10.14      17.23
O      30.53       7.45      17.37
O      30.51       9.15      14.72
C      27.86       4.43      13.76
C      30.45       6.25      17.79
O      26.36       5.39      17.57
C      30.36       8.87      13.48
