23

Zn      23.29      18.74      17.00
Zn      21.74      19.68      14.33
Zn      20.08      18.68      16.88
Zn      21.55      21.48      16.94
C      19.26      18.15      14.05
C      24.36      18.32      14.27
O      21.69      19.63      16.29
O      20.23      18.75      13.48
C      18.95      20.99      18.28
C      24.04      21.16      18.53
O      24.48      18.19      15.54
C      21.67      16.63      18.30
O      20.53      17.10      17.93
O      23.04      21.84      18.15
O      19.91      21.78      17.98
O      24.31      19.96      18.19
O      21.72      21.52      13.65
O      23.39      18.87      13.65
C      21.65      22.65      14.25
O      22.82      17.14      18.04
O      19.08      18.06      15.31
O      21.56      22.82      15.52
O      18.85      19.76      17.95
