11

Zn      12.34      12.06       9.32
C      14.61      10.61      10.67
C      12.03      12.28       6.52
N      13.90      10.82       9.52
N      13.02      13.86       9.96
C      14.10      14.48       9.44
O      10.85      11.67      10.55
C      12.36      14.79      10.73
C      10.20      10.60      10.21
C      14.49      10.10       8.56
O      11.41      12.60       7.63
