36

C       3.83      -1.30       9.83
Cu       5.93       0.33      12.50
Cu       2.40       1.28       9.72
Cu      -1.12      -1.60      10.28
C       7.14      -2.23      11.67
C       3.61       1.83      12.34
C       0.09       0.39       8.49
C       4.99      -2.39      13.03
C       1.47       3.10      11.80
C      -2.06      -0.71       7.67
N       7.30       0.70      14.30
N       3.77       2.65       8.49
N       0.25      -3.35       9.71
N      -0.31      -1.37      12.13
N       6.74       1.81      11.37
N       3.22      -0.44       9.00
O       4.85      -1.10      13.25
O       1.33       2.65      10.58
O      -2.19      -1.55       8.67
O       7.15      -0.94      11.66
O       3.62       1.19      11.24
O       0.10      -0.24       9.60
O      -2.49      -2.87      11.07
O       4.55       1.64      13.20
O       1.03       1.23       8.23
C       8.39       1.48      14.34
C       4.87       2.30       7.80
C       1.34      -3.78      10.36
C       6.93       0.06      15.42
C       3.41       3.94       8.49
C      -0.11      -4.00       8.59
C      -0.31      -2.38      13.02
C       6.74       3.09      11.80
C       3.22      -0.71       7.68
C       0.31      -0.22      12.46
C       7.36       1.52      10.21
