20

Zn       9.71       7.94      10.03
Zn       9.97      10.77       9.72
C       9.75       9.88      12.38
C       9.92       9.00       7.29
C      12.41       9.09       9.70
C       7.27       9.46       9.66
C      10.63       5.23       9.42
C      11.59      13.23       9.64
C       8.63       5.06      10.55
C       9.42      13.75       9.11
N       9.63       5.82      10.10
N      10.33      12.83       9.36
O       9.79       8.71      11.91
O      10.22      10.13       7.79
O       9.84      10.98      11.76
O       9.67       7.93       7.93
O      11.78       7.98       9.79
O       7.98      10.52       9.54
O      11.94      10.23       9.99
O       7.71       8.30       9.93
