20

Zn      10.18       2.43      11.10
C       7.38       3.04      10.28
Zn      12.90       2.09      10.59
C      15.70       1.48      11.41
N       8.13       2.46      11.24
N      14.95       2.06      10.45
O      10.20       0.56      10.22
O      12.88       3.96      11.47
O      12.40       0.27       9.79
O      10.67       4.25      11.90
O      12.49       2.99       8.76
O      10.59       1.54      12.93
O      10.29       3.30       9.22
O      12.79       1.23      12.48
C      11.19      -0.10       9.77
C      11.89       4.63      11.92
C      11.32       3.40       8.47
C      11.76       1.12      13.22
C       7.51       1.79      12.23
C      15.57       2.73       9.46
