66

Zr      11.61      19.05       2.96
Zr       7.62      20.37       0.43
Zr       8.50      17.43       2.21
Zr      10.69      22.00       1.15
Zr      10.65      18.77      -0.38
Zr       8.60      20.71       3.77
O      11.80      19.57       5.18
O      13.31      17.96       1.93
O      11.77      17.09       3.99
O      12.74      22.41       2.18
O       9.89      15.97       3.34
O      13.35      20.45       3.17
O      12.61      17.68      -0.22
O      10.43      18.09       1.59
O      11.93      20.07       0.94
O       9.52      18.66       3.93
O      10.47      20.77       2.88
O      10.39      23.69       2.42
O      10.43      16.51      -1.17
O       9.62      20.54      -0.01
O       8.46      18.28       0.01
O       7.87      19.50       2.21
O       8.50      21.93       1.82
O       8.22      15.75       1.18
O       6.10      17.42       1.47
H       6.45      16.74       3.73
H       6.27      19.79       4.97
O       5.87      21.38       1.48
O       7.30      17.17       3.94
O       5.84      19.11      -0.03
O       9.64      20.70       5.64
H       8.16      23.49       4.35
H      11.47      20.07      -2.52
H       7.09      20.96      -2.24
O       7.16      19.42       4.99
O       8.97      22.94       4.31
H       9.07      19.00      -2.59
H      12.83      22.78      -0.32
H      11.23      24.07       2.72
H      12.01      21.10      -1.35
O       7.25      20.02      -2.01
H      11.93      18.79       5.75
O      11.96      22.40      -0.48
O       9.43      23.36      -0.26
H       8.74      14.95       1.36
H       6.37      19.59      -1.94
H      10.89      20.08       5.47
O       9.96      18.65      -2.38
H      11.32      16.12      -1.24
H       7.12      18.42       4.57
H       9.61      23.35       3.52
O      12.00      20.12      -1.70
C      13.47      17.59       0.73
C      13.53      21.67       2.85
C      10.95      16.10       4.02
C       5.47      18.02       0.57
C       5.67      21.69       2.70
H      12.84      20.22       0.64
C       8.35      23.21      -0.90
H       9.78      21.62       5.94
H       8.06      17.59      -0.55
O       6.52      21.64       3.66
H       8.08      22.80       1.81
H       9.47      18.28       4.82
O       7.48      22.28      -0.75
H      10.20      16.94      -2.04
