11

Cu       9.21       5.64       0.65
C       8.00       6.74       3.14
C       8.19       2.87       0.24
C       6.20       6.02      -0.08
N       9.29       3.50       0.70
N      12.04       6.02      -0.15
N       9.14       6.15       2.72
N      10.94       5.98       0.15
C      10.39       2.76       0.91
C       7.44       5.97       0.08
C      10.11       5.94       3.63
