20

Zn       7.75       7.85       9.84
Zn       7.80      10.81       9.72
N       7.82       5.76       9.79
N       7.86      12.91       9.64
O       8.35       8.15       7.90
O       8.00      10.36      11.69
O       7.14       8.28      11.73
O       7.58      10.28       7.77
O       5.77       8.34       9.31
O       9.85      10.42       9.51
O       9.76       8.28      10.30
O       5.71      10.53       9.95
C       8.03       9.20       7.27
C       7.57       9.33      12.31
C       8.53       5.12      10.73
C       7.13      13.59       8.74
C       7.23       5.09       8.78
C       8.64      13.57      10.52
C       5.19       9.42       9.61
C      10.35       9.32       9.88
