14

O       5.54      16.22       0.33
Zn       4.07      17.19       1.21
Zn       2.63      18.20      -0.89
O       2.51      15.89       0.77
O       4.34      17.00      -1.41
C       5.32      16.37      -0.95
C       1.71      15.78      -0.21
C       2.08      18.67       2.22
C       4.48      19.93      -0.27
O       1.52      16.67      -1.12
O       3.08      18.02       2.69
O       1.71      18.78       1.03
O       4.73      19.02       0.58
O       3.51      19.87      -1.14
