13

Co       3.87      14.40      14.40
C       3.75      11.59      15.72
O       5.88      14.13      14.96
C       2.14      16.21      14.23
N       4.34      14.65      12.39
C       5.36      14.02      11.78
N       3.40      12.39      14.65
C       2.38      11.79      14.02
C       5.60      14.23      16.21
O       3.33      16.58      14.48
O       4.41      14.48      16.58
O       1.86      14.96      14.12
C       3.98      15.72      11.58
