16

I      11.39      18.46       8.75
I       7.89      20.42      10.71
Cu       9.64      20.49       8.68
Cu      13.15      18.39      10.78
N      10.69      22.18       8.87
N      14.19      16.71      10.58
C      12.61      18.36      13.69
C      13.68      15.47      10.81
N      12.10      18.59      12.46
N       8.59      20.30       6.99
C      10.81      18.95      12.39
C      15.49      16.78      10.22
C       9.10      20.53       5.76
C       7.29      19.93       7.06
C      10.18      23.41       8.64
C      11.98      22.10       9.24
