20

Zn       6.18       5.47       1.06
Zn       3.31       5.68       1.38
N       8.30       5.48       1.20
N      11.07       5.62       1.28
O       5.49       3.58       0.45
O       3.48       3.61       1.45
O       3.78       6.00      -0.66
O       6.01       5.98      -0.99
O       3.59       7.68       1.58
O       5.80       7.49       1.25
O       5.99       4.70       2.97
O       3.95       5.55       3.38
C       4.49       2.99       0.99
C       4.78       6.12      -1.42
C       4.73       8.18       1.31
C       4.97       4.89       3.74
C       8.92       6.18       2.17
C      10.45       4.94       0.29
C      10.33       6.23       2.23
C       9.04       4.83       0.28
