20

Zn       5.99       7.47       8.55
Zn       6.08      10.42       8.41
C       5.85       9.12      11.09
C       8.66       8.94       8.69
C       6.19       8.92       5.89
C       3.40       8.88       8.32
C       6.68      13.16       9.23
C       4.92      13.11       7.70
C       5.00       4.79       8.03
C       7.01       4.74       9.23
N       5.81      12.45       8.46
N       6.05       5.45       8.61
O       5.83       7.94      10.58
O       5.85      10.19      10.40
O       8.12      10.08       8.57
O       8.04       7.83       8.80
O       6.27      10.11       6.42
O       6.12       7.86       6.57
O       3.94       7.76       8.50
O       4.01       9.98       8.08
