23

Zn       0.01      -1.60       5.39
Zn      -0.01       1.63       5.38
Zn       1.61       0.00       7.63
Zn      -1.61       0.03       7.64
C       2.57      -2.56       6.51
C       2.54       2.58       6.55
C      -2.56       2.59       6.52
C      -2.55      -2.55       6.54
C       0.00       0.01       2.90
C      -0.02      -0.12      10.10
O       2.76      -1.55       7.27
O       2.68       1.62       7.37
O      -2.73       1.60       7.31
O      -2.70      -1.57       7.36
O      -0.00       0.02       6.51
O      -1.58      -2.71       5.72
O      -1.58       2.76       5.73
O       1.58       2.74       5.72
O       1.57      -2.74       5.73
O       0.01      -1.13       3.48
O      -0.01       1.15       3.47
O       1.11      -0.21       9.52
O      -1.16       0.09       9.57
