18

Al       5.96       6.47       8.51
Al       9.29       6.50       8.50
O       9.80       7.65       7.02
O       8.80       5.43       9.99
O       8.73       5.16       7.22
O       7.62       7.31       8.46
H       4.27       4.86       7.93
H       7.60       8.19       8.06
O       9.89       7.82       9.75
O       5.39       7.81       7.21
C       4.27       8.06       6.64
C       4.32       8.06      10.31
C       7.66       5.00      10.38
C       7.61       4.88       6.68
O       6.46       5.29       7.05
O       5.46       7.61       9.97
O       6.55       5.20       9.79
O       4.29       5.67       8.46
