40

Cu       2.86       6.80       7.15
Cu       4.49       8.78       7.40
Cu       3.13       7.91       9.51
Cu       1.93       9.19       7.61
Cu       6.36       8.34      10.04
Cu       0.39       7.65       5.17
Cu       2.06       4.83       9.69
Cu       3.61      11.88       6.67
C       2.87       4.53       5.04
C       7.34       9.13       6.24
C       5.80       7.20      12.75
C      -1.14      10.18       4.79
C       1.23       2.88       7.59
C       6.52      12.47       6.39
C       2.39       7.62      12.52
C      -0.18      11.43       7.84
C       1.12       5.11       3.91
C       8.47       9.00       8.09
C       6.34       9.30      12.74
C      -2.31       8.52       5.54
C       2.98       2.30       8.73
C       5.39      12.60       4.55
C       1.85       5.53      12.53
C       0.99      13.09       7.09
I       3.13       9.11       5.21
I       4.86       6.05       8.61
I       0.49       7.17       8.35
I       3.96      10.37       9.48
N       2.43       5.68       5.56
N       6.47       8.86       7.21
N       2.48       7.19      11.25
N       1.05      10.97       7.61
N       6.18       8.22      11.92
N      -1.06       8.85       5.12
N       2.03       3.28       8.62
N       5.26      12.36       5.88
N       1.32       6.05       4.83
N       7.19       8.77       8.39
N       2.13       5.86      11.26
N       1.80      12.03       7.14
