13

Zn       4.34       5.52      11.23
O       3.25       5.47      13.12
O       4.21       7.60      11.29
C       3.39       3.07       9.81
O       4.66       5.92       9.19
C       2.12       5.51      12.51
C       4.29       8.12      10.14
C       7.35       5.23      11.19
C       4.56       7.15       8.93
N       6.30       5.50      11.98
C       5.15       2.54      11.21
N       4.29       3.45      10.74
C       6.52       5.85      13.26
