10

Al       1.98      19.44       6.85
O       3.03      20.56       7.99
O       3.02      19.86       5.30
O       3.04      17.92       7.24
O       0.91      21.00       6.85
O       0.92      18.63       8.24
O       0.91      18.65       5.48
C       4.02      21.29       7.68
C       3.99      19.19       4.82
C       3.98      17.82       8.08
