15

Cu      28.41      27.82      28.02
Cu      26.13      29.87      27.45
Cu      25.64      27.60      29.60
N      26.93      26.31      29.87
N      28.18      26.54      29.34
N      24.48      29.04      29.55
N      24.78      30.07      28.69
C      29.71      29.42      25.92
C      27.96      30.64      25.30
C      27.03      25.31      30.77
C      29.05      25.69      29.93
C      24.12      31.17      29.11
C      23.62      29.50      30.47
N      27.57      29.82      26.30
N      28.65      29.06      26.68
