23

Zn      19.37       9.88       7.22
Zn      16.14       9.77       7.26
Zn      17.71      12.61       7.22
Zn      17.76      10.82       9.85
C      17.80       7.78       5.85
C      20.31       9.35       9.96
C      20.26      12.29       5.79
C      15.22       9.34      10.03
C      15.15      12.11       5.79
C      17.72      13.75       9.93
O      16.65       8.16       6.23
O      18.93       8.29       6.14
O      19.35       9.91      10.57
O      20.51       9.29       8.71
O      19.28      13.03       6.12
O      20.45      11.07       6.10
O      16.16       9.97      10.60
O      15.06       9.13       8.78
O      16.09      12.90       6.14
O      14.99      10.90       6.13
O      17.81      12.65      10.55
O      17.63      13.94       8.67
O      17.73      10.76       7.88
