16

Zn       4.78       6.91       6.91
C       5.92       6.91       9.78
C       3.61       6.91       9.77
C       3.64       4.05       6.91
Si       0.91       6.91       6.91
C       5.95       4.06       6.91
C       5.92       9.77       6.91
C       3.61       9.77       6.91
N       4.79       6.91       4.75
N       4.77       6.91       9.07
N       4.79       4.75       6.91
N       4.77       9.07       6.91
F       2.66       6.91       6.91
F       6.90       6.92       6.92
C       3.64       6.91       4.05
C       5.95       6.91       4.06
