14

O       8.22      10.56      13.82
Zn      10.73      11.48      15.43
O      11.78      10.25      16.64
O       9.72      12.17      17.03
O       9.44      12.44      14.22
O      11.50      10.52      13.82
C      11.19       9.29      17.25
C      11.19       9.29      13.60
Zn       8.98       9.60      15.43
O       7.93      10.83      16.64
C       8.53      11.79      13.60
C       8.53      11.79      17.25
O       9.99       8.91      17.03
O      10.28       8.64      14.22
