15

C       4.90       8.81      25.17
C       3.23       8.73      23.70
C       8.65       3.30      23.70
C       8.74       4.97      25.17
C       3.27       4.91      19.77
Cu       6.52       6.59      24.18
C       4.85       3.34      19.78
Cu       6.46       4.27      22.02
Cu       4.19       6.53      22.02
N       4.16       7.82      23.34
N       5.19       7.87      24.25
N       7.80       5.26      24.25
N       7.75       4.23      23.34
N       5.14       4.23      20.74
N       4.16       5.21      20.73
