36

Zn       7.34       5.60      10.26
Zn       5.07       7.93      10.39
Zn       5.12       8.01      13.70
Zn       7.31       5.40      13.59
C       6.76      10.35      10.88
C       8.99       3.00      10.71
C       9.50       7.38      13.10
C       2.05       8.45      12.90
C       6.68      10.54      13.08
C       8.81       2.83      12.90
C       9.43       7.58      10.90
C       2.07       8.72      10.71
C       7.62       6.15      16.68
C       3.62       5.74      14.90
C       6.37       8.61       7.73
C       4.92       3.95       9.80
N       7.08       6.71       8.57
N       4.50       5.98      10.53
N       6.69       7.59      15.27
N       5.27       5.03      13.62
N       6.26       9.21      11.39
N       8.29       4.06      11.15
N       8.31       6.89      12.67
N       3.34       8.49      12.51
N       6.22       9.33      12.74
N       8.18       3.95      12.51
N       8.28       7.01      11.31
N       3.35       8.66      11.15
C       7.87       7.02       7.51
N       7.20       6.34      15.39
N       4.62       6.11      14.05
C       3.39       5.54       9.90
N       6.15       7.71       8.70
N       5.45       5.00      10.46
C       6.80       8.19      16.47
C       4.66       3.94      14.15
