15

Cu      25.95      10.41      11.17
Cu      24.51       9.31      13.73
Cu      27.18       7.87      12.55
C      23.63      12.16      11.17
C      22.60      11.45      13.02
C      28.87       7.97      10.13
N      23.75      10.76      12.87
N      24.38      11.20      11.74
N      27.46       9.63      10.45
C      28.10       9.88       9.29
N      27.93       8.45      10.97
N      25.25       7.85      14.58
C      24.87       7.20      15.71
N      26.41       7.28      14.13
C      26.76       6.28      14.96
