10

Al       4.27       9.95      11.49
C       2.11      10.11       9.52
C       2.11       8.16      12.34
C       2.11      11.58      12.62
O       3.06      10.76      12.78
O       3.06      10.66      10.15
O       3.06       8.44      11.55
O       5.39      11.39      12.05
O       5.39       8.75      12.46
O       5.39       9.72       9.97
