20

Zn       3.80       5.45       1.16
Zn       6.65       5.47       1.22
C       5.33       8.06       0.90
C       5.10       5.06      -1.40
C       5.36       2.89       1.35
C       5.08       5.85       3.72
C      -0.47       6.29       0.10
C      -0.45       4.91       1.95
C       0.97       4.90       1.93
C       0.96       6.29       0.10
N      -1.15       5.57       1.07
N       1.66       5.57       1.04
O       4.24       7.46       0.68
O       6.46       7.52       1.12
O       6.20       5.31      -0.80
O       3.96       5.00      -0.82
O       6.51       3.44       1.27
O       4.25       3.47       1.51
O       3.98       5.96       3.09
O       6.22       5.61       3.20
