20

Zn      13.61      14.98       8.18
Zn      11.40      14.28       9.76
C      12.22      12.43       7.57
C      12.64      16.80      10.41
C       9.47      12.28      10.78
C       9.53      14.21      12.07
N       9.95      13.52      11.00
N      15.09      15.72       6.95
O      11.27      12.75       8.36
O      13.26      13.14       7.33
C      14.26      13.41      10.46
O      13.35      16.63       9.37
O      11.82      15.95      10.90
O      14.84      14.14       9.60
O      13.00      13.27      10.59
O      10.38      15.49       8.44
O      12.07      15.70       6.95
C      10.88      15.90       7.34
C      14.85      15.80       5.63
C      16.25      16.19       7.43
