18

O       4.33      -1.82      14.19
Mg       5.73      -0.41      13.80
Mg       8.02       1.04      14.90
Mg       3.44      -0.64      15.60
C       6.04       2.53      13.05
C       1.46       0.23      17.82
C       3.75      -2.76      13.44
O       2.57       2.35      14.33
O       4.86      -0.79      17.02
O       7.15      -1.56      12.95
O       4.19       0.82      14.43
O       6.48      -0.11      15.65
C       3.75       1.98      14.05
C       6.05      -0.37      16.84
C       8.34      -1.61      13.41
O       1.90      -0.71      14.23
O       6.63       1.41      13.48
O       2.04       0.41      16.63
