24

Cd      13.35       6.48       7.98
Cd      17.03       5.56       6.87
N      13.98       6.79      10.18
N      16.41       5.25       4.67
N      12.89       6.61       5.73
N      17.50       5.42       9.12
O      11.03       6.68       8.32
O      19.36       5.36       6.52
O      14.98       4.42       7.21
O      15.40       7.62       7.63
O      13.29       4.21       8.66
O      17.10       7.83       6.18
C      14.51       7.88      10.71
C      15.88       4.16       4.13
C      13.55       5.99      11.22
C      16.84       6.05       3.63
C      12.82       5.60       4.87
C      17.56       6.44       9.97
C      12.31       7.71       5.11
C      18.07       4.33       9.73
C      11.01       7.96       8.38
C      19.37       4.08       6.46
C      14.31       3.75       8.06
C      16.07       8.29       6.78
