20

Zn       9.69       9.03       3.48
Zn       6.91       9.07       3.43
O       9.58      11.08       3.31
O       7.31      11.07       3.13
O       7.06       9.47       5.43
O       9.31       9.20       5.49
O       7.19       7.06       3.77
O       9.46       6.99       3.64
O       9.39       8.84       1.44
O       7.12       8.75       1.43
C       8.44      11.64       3.26
C       8.17       9.37       6.03
C       8.31       6.45       3.73
C       8.25       8.80       0.86
C       4.18       9.99       4.19
C       4.15       8.15       2.79
C      12.40       9.55       4.58
C      12.45       8.45       2.54
N       4.84       9.08       3.46
N      11.75       8.99       3.54
