20

Zn       6.47       8.66       6.84
Zn       6.53       5.81       6.47
C       6.49       7.78       4.09
C       9.09       7.05       6.49
C       6.81       3.56       4.68
C       6.84       6.86       9.18
C       5.65       2.84       6.58
C       7.34      11.56       6.68
C       5.69      11.10       8.29
C       3.92       7.25       6.69
N       6.57      10.68       7.34
N       6.30       3.82       5.88
O       6.65       8.83       4.79
O       6.28       6.60       4.53
O       8.46       8.06       6.95
O       8.56       5.97       6.06
O       6.31       7.94       8.77
O       7.01       5.80       8.49
O       4.45       8.42       6.63
O       4.55       6.15       6.82
