23

Zn      16.09      16.34      22.41
Zn      17.58      15.39      25.09
Zn      15.84      18.11      25.06
Zn      14.40      15.22      24.92
C      18.71      14.98      22.38
C      18.36      17.79      26.59
O      15.98      16.27      24.37
O      17.72      15.48      21.74
O      18.52      16.54      26.38
C      16.03      13.22      26.35
C      15.94      19.27      22.35
C      13.30      17.54      26.40
O      17.49      18.55      26.06
O      14.28      18.35      26.20
O      13.41      14.57      23.35
O      13.19      16.35      25.97
O      14.58      15.39      21.58
C      13.62      14.75      22.10
O      15.79      19.42      23.61
O      18.84      14.92      23.66
O      16.07      18.17      21.71
O      14.87      13.65      25.99
O      17.16      13.75      26.06
