24

Al       4.71       9.94       0.21
Al       3.09       7.19       0.12
Al       1.51       9.74       0.11
C       4.89       7.69       2.17
C       0.82       7.53       1.78
C       2.73      11.11       2.18
C       5.14       7.61      -1.65
C       1.18       7.80      -1.93
C       2.84      11.35      -1.68
O       0.45       8.61       1.21
O       1.60      10.79       1.65
O       3.98      10.98      -1.30
O       5.44       8.72      -1.11
O       4.36       6.70      -1.14
O       1.85       6.91      -1.31
O       0.76       8.89      -1.40
O       1.73      11.19      -1.03
O       3.08       8.95       0.15
O       3.84      11.13       1.57
O       5.20       8.83       1.73
H       6.31      11.49       0.95
O       4.25       6.78       1.51
O       1.72       6.73       1.35
O       6.20      10.87       0.22
