20

Zn       6.82       5.65      14.16
Zn       6.53       8.43      14.38
C       6.67       6.82      16.88
C       4.07       6.76      14.26
C       6.68       7.31      11.66
C       9.28       7.30      14.29
C       7.59       2.79      13.37
C       5.77      11.28      15.20
C       7.38      11.13      13.58
C       6.02       2.95      15.03
N       6.85       3.56      14.16
N       6.52      10.51      14.43
O       6.77       5.72      16.26
O       6.57       7.97      16.35
O       4.55       7.94      14.26
O       4.75       5.68      14.25
O       6.64       8.40      12.32
O       6.71       6.13      12.16
O       8.80       6.12      14.22
O       8.62       8.38      14.36
