14

Zn       1.88       0.05      17.48
C       3.73      -0.01      20.01
C       2.75       2.55      17.49
Zn       4.57       0.00      17.50
O       1.51      -1.88      17.48
O       3.79      -1.94      17.49
O       4.91      -0.02      15.55
O       2.65       0.02      15.59
O       3.87       1.95      17.49
O       1.60       1.98      17.48
O       2.62       0.02      19.38
O       4.89      -0.03      19.44
C       2.65      -2.50      17.48
C       3.76      -0.01      14.97
