18

Al       6.79       6.79       0.02
O       3.95       8.08      -1.37
Al      10.18       6.86      -0.01
O       6.24       8.00       1.37
H       8.48       8.62       0.01
H       5.06       5.04      -0.04
O       9.63       5.60      -1.37
O       7.36       5.56       1.35
O       7.37       5.62      -1.37
O       9.62       5.64       1.36
O       3.98       8.08       1.37
O       6.21       8.03      -1.35
O       8.47       7.65       0.01
O       5.09       6.00      -0.00
C       5.11       8.42       1.85
C       5.08       8.43      -1.84
C       8.51       5.23      -1.85
C       8.49       5.22       1.84
