9

Zn       5.37      10.16       7.10
I       5.19      11.31       9.37
I       3.94       8.19       6.29
C       3.84      11.75       5.09
N       7.42       9.75       6.86
C       6.08      12.35       5.13
N       5.08      11.57       5.59
C       8.29      10.50       7.56
C       7.90       8.76       6.08
