10

Al       0.10      21.45       4.13
O      -0.99      22.07       2.68
O      -0.99      19.88       4.32
O      -0.99      22.40       5.39
O       1.21      20.92       2.65
O       1.21      22.99       4.41
O       1.21      20.43       5.32
C      -1.99      19.64       5.07
C      -1.99      23.17       5.22
C      -1.99      21.54       2.09
