20

Zn      11.99       9.99       9.75
Zn      10.99       7.34       9.92
C      11.72       8.91      12.43
C      11.32       8.47       7.24
C       9.17       9.84      10.00
C      13.79       7.45       9.94
C      14.02      12.20       8.78
C       9.02       5.10      10.94
C      12.45      12.75      10.41
C      10.49       4.60       9.20
N      13.00      11.84       9.58
N      10.00       5.48      10.10
O      12.01      10.00      11.84
O      11.04       7.38       7.84
O      11.38       7.82      11.87
O      11.63       9.58       7.79
O      10.06      10.75       9.96
O      12.90       6.54       9.85
O       9.39       8.59       9.84
O      13.57       8.70       9.88
