20

Zn       3.25       5.41       7.69
Zn       2.96       8.18       7.66
C       3.10       6.74      10.30
C       5.69       7.21       7.71
C       0.50       6.52       7.63
C       3.18       6.73       5.05
C       3.46      11.08       8.21
C       3.29       2.61       6.65
C       1.46      10.68       7.12
C       4.30       2.83       8.73
N       2.60      10.21       7.66
N       3.64       3.38       7.69
O       3.32       5.61       9.75
O       3.12       7.87       5.63
O       2.87       7.82       9.68
O       3.17       5.60       5.63
O       5.22       6.03       7.61
O       0.95       7.70       7.51
O       5.02       8.29       7.82
O       1.19       5.45       7.75
