14

Zn       2.57      -0.02      17.33
Zn       5.28       0.15      17.33
O       3.53      -1.89      17.33
O       5.78      -1.72      17.33
O       4.49       0.12      15.35
O       2.23      -0.13      15.42
O       5.46       2.07      17.33
O       3.20       1.96      17.33
O       2.22      -0.13      19.24
O       4.48       0.12      19.31
C       4.69      -2.41      17.33
C       3.36      -0.04      14.82
C       4.28       2.61      17.33
C       3.35      -0.04      19.84
