18

Mg      -0.83      20.39      10.57
Mg      -3.11      20.18      12.37
Mg       1.45      18.72      11.29
C      -3.43      20.10       9.32
C       1.11      19.52       8.37
C      -1.17      22.52      12.72
C       1.14      21.41      12.75
O       2.32      21.36      13.22
O       0.72      20.51      11.91
O      -1.73      21.59      11.94
O       0.04      17.40      11.89
O      -1.56      18.96      11.81
O       2.83      18.40      12.73
C       3.39      17.25      13.14
O      -2.24      20.53       9.12
O       3.00      19.83      10.51
O       0.55      19.31       9.57
C      -1.15      17.78      12.16
