21

Ni      13.67       9.40      11.01
C      11.56       9.25      13.35
N      15.16       8.61      12.31
N      13.49       7.65       9.95
N      12.19      10.19       9.70
N      13.86      11.15      12.06
H      14.24       7.77       9.23
O      15.18      10.08       9.67
C      14.65       7.29      12.78
C      16.44       8.20      11.67
C      13.70       6.40      10.70
C      12.18       7.75       9.28
O      12.17       8.72      12.34
C      15.29       9.65      13.35
C      15.79       9.55       8.66
C      12.70      11.51       9.23
C      10.91      10.60      10.34
C      13.65      12.40      11.31
C      15.17      11.05      12.73
C      12.06       9.15       8.66
H      13.11      11.02      12.78
