10

Al       0.00      25.18       8.72
C      -1.99      25.20      10.77
O      -1.05      24.22       7.44
O      -1.05      24.55      10.19
O      -1.05      26.76       8.53
O       1.06      23.59       8.56
O       1.06      26.11       7.42
O       1.06      25.83      10.18
C      -1.99      23.39       7.72
C      -1.99      26.94       7.68
