23

Zn      20.10       9.72       0.82
Zn      20.78      11.22      -1.92
Zn      18.88      12.62       0.27
Zn      22.01      12.32       0.82
O      20.44      11.47      -0.00
O      20.20       8.28      -0.50
C      20.44       8.29      -1.74
C      17.40      10.52       1.74
O      19.45      12.20      -2.98
O      18.33       9.65       1.65
C      22.42      10.02       2.65
O      20.68       9.33      -2.42
C      18.46      12.92      -2.65
C      23.48      12.43      -1.74
O      21.43       9.35       2.22
O      22.55      11.89      -2.42
O      17.47      11.69       1.26
O      18.12      13.17      -1.45
O      19.34      14.24       1.26
O      22.76      11.16       2.22
O      21.54      14.03       1.65
O      23.42      12.65      -0.50
C      20.44      14.65       1.74
