37

Zn       2.19       6.47       6.66
Zn       4.55       4.07      10.32
Zn       4.70       4.30       6.97
Zn       1.90       6.19      10.92
C       1.41       3.77      12.66
C       3.71       3.72       4.01
C      -0.96       6.28      10.99
N       2.44       5.06       5.20
N       6.29       3.57       9.47
N       5.14       6.22       6.44
N       3.76       6.81      10.52
N       4.82       6.08      10.19
N       4.12       7.14       6.42
N       1.79       8.73       8.12
N       6.35       3.90       8.13
N       3.52       3.84      12.03
N       3.28       3.22       7.86
N       0.71       5.90       9.31
N       3.18       3.14       9.21
N       0.81       5.63       8.01
N       2.32       4.51      12.01
N       3.56       4.27       5.23
N       1.34       8.25       6.95
O      -0.08       6.39      11.88
C       1.89       4.97       3.97
C       0.22       8.94       6.54
C       7.49       3.85      10.02
C       5.82       6.32       5.28
C       4.17       8.01      11.00
C       5.94       6.81      10.45
C       4.19       7.82       5.26
C       3.34       2.68      12.69
C       7.58       4.38       7.87
C       2.74       2.10       7.33
C      -0.61       6.00       9.63
C       2.58       1.98       9.53
C      -0.44       5.55       7.48
