18

Al       1.67      11.90      12.48
O       3.34      11.08      12.54
Al       5.02      11.89      12.56
O       0.00      12.70      12.51
H       3.35      10.23      12.07
H       0.01      13.55      12.98
C       3.33      13.60      14.21
O       4.48      13.05      11.11
C      -0.01      10.18      10.83
O       1.14      10.73      13.94
C       3.38      13.35      10.58
O       2.21      13.25      13.73
C       0.03      10.44      14.46
O       5.55      10.54      11.32
O       2.21      13.03      10.99
O       5.55      10.75      14.05
O       1.14      10.60      11.19
O       4.48      13.19      13.86
