15

N      25.10      19.72      31.87
N      25.67      20.89      32.30
N      28.76      22.13      30.73
Cu      27.21      21.49      31.50
Cu      25.72      18.97      30.30
Cu      28.36      20.06      28.91
N      29.20      21.57      29.55
N      27.52      18.58      28.21
N      26.30      18.21      28.73
C      24.94      21.35      33.34
C      24.04      19.44      32.66
C      30.27      22.28      29.13
C      29.56      23.17      31.03
C      25.79      17.23      27.94
C      27.77      17.81      27.13
