18

Al       6.37       6.65       8.65
Al       3.04       6.65       8.65
H       4.71       6.15      10.30
H       8.02       7.14       7.00
O       6.95       6.86      10.47
O       9.10       4.85       8.97
O       3.55       6.14       6.88
O       5.87       8.51       8.68
O       5.78       6.44       6.84
O       3.64       8.44       8.33
C       8.07       7.15      11.01
C       7.99       4.21       8.76
C       4.67       6.15       6.28
C       4.75       9.08       8.54
O       9.19       7.16      10.42
O       6.86       4.78       8.63
O       4.70       6.15       9.33
O       8.03       7.15       7.97
