10

Al       3.85       7.89       0.03
O       4.94       6.41       0.63
O       4.93       9.15       1.02
O       4.93       8.11      -1.51
O       2.68       7.25       1.41
O       2.68       7.02      -1.24
O       2.67       9.40      -0.10
C       6.01       6.35       1.29
C       6.00       9.77       0.73
C       5.98       7.54      -1.95
