20

Zn       3.61       4.96      14.12
Zn       6.37       4.95      14.07
C       4.96       2.41      14.10
C       4.97       7.50      14.10
C       4.99       4.91      11.45
C       5.05       5.01      16.73
C      -0.51       5.78      14.90
C       0.90       4.14      13.28
C      -0.49       4.15      13.25
C       0.88       5.78      14.92
N       1.57       4.96      14.11
N      -1.17       4.97      14.07
O       3.85       2.99      13.89
O       6.06       6.91      13.82
O       3.86       6.92      14.36
O       6.08       2.99      14.30
O       3.91       5.21      12.03
O       6.16       5.26      16.17
O       3.95       4.71      16.19
O       6.11       4.64      11.97
