23

Zn      31.22      16.18      13.42
Zn      32.82      18.97      13.42
Zn      31.23      18.03      10.79
Zn      29.61      18.96      13.40
C      31.22      15.06      10.70
C      31.18      20.99      14.84
C      28.68      19.50      10.64
C      33.79      16.58      14.85
C      28.65      16.58      14.85
C      33.79      19.52      10.69
O      31.22      18.03      12.76
O      31.22      14.86      11.96
O      32.33      20.52      14.52
O      31.23      16.19      10.10
O      30.04      20.53      14.51
O      29.66      18.93      10.03
O      33.96      17.81      14.53
O      28.52      19.59      11.90
O      32.81      15.83      14.52
O      28.47      17.80      14.51
O      33.96      19.63      11.96
O      29.63      15.83      14.52
O      32.82      18.94      10.09
