154

Nd      15.11       8.73      11.64
Nd      22.67       4.36      11.64
Nd      22.67       4.36      19.39
Nd      15.11       8.73      19.39
Co      18.89       6.54      15.52
Co      11.33       6.54      15.52
Co      15.11      13.09      15.52
Co      11.33       6.54       7.76
Co      18.89       6.54       7.76
Co      15.11      13.09       7.76
H      20.51       4.79      16.32
H       9.01       6.02      16.32
H      15.82      15.37      16.32
H      17.27       8.30      16.32
H      13.66       7.07      16.32
H      14.40      10.81      16.32
H      12.95       8.30       6.96
H      16.56       7.07       6.96
H      15.82      10.81       6.96
H       9.72       4.79       6.96
H      21.22       6.02       6.96
H      14.40      15.37       6.96
H      17.27       8.30      14.71
H      13.66       7.07      14.71
H      14.40      10.81      14.71
H      20.51       4.79      14.71
H       9.01       6.02      14.71
H      15.82      15.37      14.71
H       9.72       4.79       8.56
H      21.22       6.02       8.56
H      14.40      15.37       8.56
H      12.95       8.30       8.56
H      16.56       7.07       8.56
H      15.82      10.81       8.56
C      16.81       6.31      13.32
C      12.17       8.47      13.32
C      16.36      11.40      13.32
C      20.98       6.78      13.32
C      10.50       4.62      13.32
C      13.87      14.78      13.32
C       9.25       6.78       9.95
C      19.73       4.62       9.95
C      16.36      14.78       9.95
C      13.42       6.31       9.95
C      18.05       8.47       9.95
C      13.87      11.40       9.95
C      20.98       6.78      17.71
C      10.50       4.62      17.71
C      13.87      14.78      17.71
C      16.81       6.31      17.71
C      12.17       8.47      17.71
C      16.36      11.40      17.71
C      13.42       6.31       5.57
C      18.05       8.47       5.57
C      13.87      11.40       5.57
C       9.25       6.78       5.57
C      19.73       4.62       5.57
C      16.36      14.78       5.57
C      15.99       5.39      12.44
C      11.78       9.64      12.44
C      17.57      11.15      12.44
C      21.79       7.70      12.44
C      10.89       3.45      12.44
C      12.66      15.02      12.44
C       8.43       7.70      10.83
C      19.34       3.45      10.83
C      17.57      15.02      10.83
C      14.24       5.39      10.83
C      18.44       9.64      10.83
C      12.66      11.15      10.83
C      21.79       7.70      18.59
C      10.89       3.45      18.59
C      12.66      15.02      18.59
C      15.99       5.39      18.59
C      11.78       9.64      18.59
C      17.57      11.15      18.59
C      14.24       5.39       4.68
C      18.44       9.64       4.68
C      12.66      11.15       4.68
C       8.43       7.70       4.68
C      19.34       3.45       4.68
C      17.57      15.02       4.68
O      16.54       7.56      13.28
O      13.39       8.07      13.28
O      15.40      10.54      13.28
O      21.24       5.52      13.28
O       9.28       5.02      13.28
O      14.82      15.63      13.28
O       8.99       5.52       9.99
O      20.95       5.02       9.99
O      15.40      15.63       9.99
O      13.68       7.56       9.99
O      16.83       8.07       9.99
O      14.82      10.54       9.99
O      21.24       5.52      17.75
O       9.28       5.02      17.75
O      14.82      15.63      17.75
O      16.54       7.56      17.75
O      13.39       8.07      17.75
O      15.40      10.54      17.75
O      13.68       7.56       5.52
O      16.83       8.07       5.52
O      14.82      10.54       5.52
O       8.99       5.52       5.52
O      20.95       5.02       5.52
O      15.40      15.63       5.52
O      17.67       5.74      14.04
O      11.25       8.00      14.04
O      16.42      12.43      14.04
O      20.11       7.35      14.04
O      11.42       5.08      14.04
O      13.81      13.75      14.04
O      10.11       7.35       9.23
O      18.81       5.08       9.23
O      16.42      13.75       9.23
O      12.56       5.74       9.23
O      18.97       8.00       9.23
O      13.81      12.43       9.23
O      20.11       7.35      16.99
O      11.42       5.08      16.99
O      13.81      13.75      16.99
O      17.67       5.74      16.99
O      11.25       8.00      16.99
O      16.42      12.43      16.99
O      12.56       5.74       6.28
O      18.97       8.00       6.28
O      13.81      12.43       6.28
O      10.11       7.35       6.28
O      18.81       5.08       6.28
O      16.42      13.75       6.28
O      15.11       6.17      11.64
O      12.90      10.01      11.64
O      17.33      10.01      11.64
O      22.67       6.92      11.64
O       9.77       3.08      11.64
O      12.90      16.17      11.64
O      22.67       6.92      19.39
O       9.77       3.08      19.39
O      12.90      16.17      19.39
O      15.11       6.17      19.39
O      12.90      10.01      19.39
O      17.33      10.01      19.39
O      19.93       4.69      15.52
O       9.21       6.57      15.52
O      16.20      14.92      15.52
O      17.85       8.40      15.52
O      13.46       6.52      15.52
O      14.03      11.26      15.52
O      12.38       8.40       7.76
O      16.77       6.52       7.76
O      16.20      11.26       7.76
O      10.29       4.69       7.76
O      21.02       6.57       7.76
O      14.03      14.92       7.76
