11

Zn      15.47       5.94       7.65
C      14.79       3.11       6.87
C      17.74       7.36       6.74
C      16.99       4.72       9.93
N      15.88       5.39       9.56
O      13.67       6.74       7.80
C      15.30       5.84      10.72
C      13.29       7.29       6.68
N      15.52       4.25       6.61
C      16.30       3.96       5.56
O      16.66       7.54       7.47
