10

Al       4.39      16.03      14.05
C       2.28      14.27      15.09
C       2.28      16.03      12.01
C       2.27      17.79      15.09
O       3.27      17.57      14.33
O       3.27      15.05      15.27
O       3.27      15.49      12.61
O       5.51      17.01      15.27
O       5.52      16.57      12.61
O       5.52      14.48      14.33
