18

C       4.50      11.49      15.52
Al       2.79      13.01      17.40
Al       6.13      13.02      17.42
C       1.16      14.50      19.32
C       4.46      11.39      19.21
C       1.12      14.64      15.62
H       4.46      14.69      16.97
H       1.11      11.32      17.80
O       5.60      11.77      18.80
O       2.26      14.26      16.03
O       3.33      11.78      16.00
O       6.67      14.24      18.84
O       3.33      11.73      18.74
O       6.66      14.30      16.10
O       2.27      14.20      18.80
O       5.61      11.82      16.03
O       4.46      13.83      17.41
O       1.12      12.21      17.41
