54

Hf      13.77      17.78      17.29
Hf      13.04      15.53      19.90
Hf      16.95      18.33      18.66
Hf      15.91      15.09      17.95
Hf      14.05      18.82      20.58
O      14.05      16.77      21.51
Hf      16.18      16.13      21.29
O      17.30      16.22      19.33
H      13.22      14.99      17.14
H      14.85      20.18      18.24
H      18.22      15.91      19.36
H      13.66      16.71      22.40
C      15.94      19.66      15.85
C      10.95      16.31      17.52
C      14.66      15.60      15.06
C      12.20      20.36      18.51
C      14.08      14.15      22.69
C      18.98      17.64      21.10
C      13.76      12.75      18.53
C      11.25      17.41      21.70
C      16.30      21.11      20.15
C      18.64      16.35      16.76
C      17.58      13.40      20.09
C      15.39      18.53      23.44
O      16.86      19.48      16.71
O      11.21      15.67      18.58
O      14.02      16.65      15.36
O      12.45      19.59      17.54
O      12.70      20.26      19.68
O      15.37      14.89      15.84
O      11.74      17.08      16.89
O      14.75      19.20      15.96
O      13.26      17.48      19.25
O      15.68      17.10      17.63
O      13.72      15.55      17.76
O      14.89      19.26      18.55
O      13.15      14.30      21.84
O      18.77      18.32      20.06
O      14.80      13.14      17.95
O      11.98      18.44      21.65
O      15.20      20.78      20.66
O      17.79      15.41      16.81
O      17.35      14.15      21.09
O      15.99      17.43      23.23
O      17.21      13.67      18.90
O      14.68      19.14      22.57
O      12.97      13.46      19.25
O      18.56      17.47      17.38
O      17.09      20.36      19.48
O      11.48      16.28      21.14
O      15.25      14.65      22.55
O      18.15      16.89      21.72
O      15.91      17.97      20.39
O      15.06      15.25      19.82
