22

Zn       6.27       5.29      11.88
Zn       3.53       5.26      11.90
C       4.92       7.87      11.91
C       4.86       5.53       9.25
C       4.89       2.71      11.66
C      10.49       6.67      12.40
C       8.90       6.70      12.34
C      10.45       5.03      10.61
C       8.91       5.02      10.61
C      10.44       4.29      12.92
C       8.89       4.34      12.95
C       4.86       5.13      14.49
N      10.96       5.32      11.98
N       8.39       5.35      11.97
O       6.04       7.31      11.67
O       3.85       7.25      12.21
O       5.96       5.21       9.79
O       3.76       5.76       9.85
O       6.00       3.29      11.89
O       3.79       3.32      11.41
O       5.98       5.34      13.91
O       3.77       4.85      13.89
