12

Cd       6.66      14.07      11.89
O       6.54      14.98      14.13
C       8.11      14.32       8.89
C       6.51      16.17      13.68
C       8.11      11.15      12.64
C       4.78      12.53      10.59
N       7.89      14.85      10.14
N       7.89      12.47      12.96
O       4.52      13.50      11.41
C       8.50      16.03      10.19
O       6.54      16.43      12.42
C       8.50      12.71      14.11
