54

Zr       3.07      14.88       9.16
Zr       6.59      12.70       6.36
Zr       4.78      11.79       9.26
Zr       4.89      15.80       6.27
Zr       6.61      14.81       9.20
Zr       3.06      12.77       6.33
H       4.81      13.87      11.17
H       7.66      15.32       6.62
H       4.78      10.55       6.71
H       2.10      15.43       6.56
O       3.73      16.23      10.81
O       8.72      12.96       6.96
O       5.93      11.51       4.60
O       0.94      14.46       8.66
O       3.33      11.78      10.91
O       3.58      17.56       6.77
O       6.22      15.74       4.52
O       6.20      10.09       8.84
O       7.38      13.63      10.93
O       2.19      10.81       6.96
O       2.43      13.87       4.49
O       7.34      16.86       8.68
O       3.34      10.12       8.79
O       3.54      15.86       4.48
O       6.27      17.49       6.78
O       6.18      11.70      11.00
O       2.26      13.78      10.94
O       7.30      10.68       6.94
O       7.40      13.80       4.57
O       2.38      16.91       8.60
O       0.92      13.18       6.79
O       6.00      16.13      10.89
O       8.74      14.38       8.74
O       3.65      11.48       4.62
O       2.88      14.96       6.89
O       4.79      11.47       7.02
O       6.86      14.88       6.95
C       9.32      13.64       7.87
C       4.79      11.17       4.12
C       4.87      16.54      11.31
O       4.85      13.75       5.97
O       4.81      13.86      10.20
O       6.28      12.93       8.40
C       0.35      13.81       7.74
O       4.86      15.50       8.32
C       2.71      17.75       7.69
C       2.50      12.61      11.40
O       3.34      12.99       8.37
C       7.05       9.89       7.91
C       2.46       9.97       7.89
C       7.10      12.49      11.42
C       7.10      14.93       4.06
C       2.70      15.02       3.99
C       7.08      17.69       7.75
