23

Zn       3.96       7.88       8.82
Zn       5.18       4.98       9.35
Zn       3.27       6.38      11.55
Zn       2.05       5.26       8.82
C       6.65       7.08       7.89
C       5.59       4.67      12.27
C       3.62       9.30      11.38
C       0.59       5.16      11.38
C       1.64       7.57       7.00
C       3.62       2.94       7.89
O       3.62       6.12       9.64
O       5.73       7.96       7.97
O       5.93       4.43      11.08
O       3.38       8.26      12.08
O       6.60       5.90       8.36
O       3.85       9.33      10.13
O       4.61       5.40      12.60
O       1.51       5.70      12.08
O       1.30       6.43       7.44
O       0.63       4.93      10.13
O       2.63       8.24       7.44
O       4.73       3.34       8.36
O       2.50       3.56       7.97
