23

Zn      18.36       7.23       8.81
Zn      16.84       4.39       8.62
Zn      18.60       5.44       6.17
Zn      20.03       4.50       8.91
C      15.75       6.71      10.09
C      16.08       3.94       5.83
C      18.55       8.38       6.13
C      21.13       4.00       6.21
O      18.46       5.39       8.13
O      15.92       3.62       7.06
O      18.89       7.29       5.58
O      15.59       5.53       9.62
O      18.26       8.57       7.37
C      18.42       2.39      10.15
O      16.76       7.47       9.91
C      20.83       6.92      10.39
O      20.98       5.67      10.17
O      21.30       4.09       7.46
O      19.93       7.68       9.91
O      17.28       2.88       9.81
O      19.57       2.86       9.86
O      16.95       4.75       5.39
O      20.12       4.38       5.53
