9

I       2.20      -0.04      21.19
I       3.44       3.08      24.26
Zn       2.01       1.11      23.46
N      -0.04       1.52      23.70
N       2.30      -0.30      24.97
C       3.54      -0.48      25.46
C       1.30      -1.07      25.43
C      -0.91       0.77      22.99
C      -0.51       2.51      24.48
