14

Zn       8.56      13.39       9.71
Zn       4.63      12.75      10.54
O       5.85      12.65      12.06
C      10.13      11.07      10.60
O       7.88      13.52      11.52
O       7.37      13.53       8.17
O       5.68      12.25       8.94
O      11.31      11.29      11.05
O       9.61      11.71       9.63
C       7.10      12.83      12.26
O       9.79      14.84       9.24
O      11.82      14.54      10.21
C       6.20      13.03       8.07
C      11.03      15.08       9.36
