18

Al       4.68      16.62       6.47
Al       1.34      16.70       6.49
H       3.07      18.25       5.82
H       6.42      14.98       5.99
C       2.97      15.02       4.68
O       1.92      15.48       7.82
C       2.99      15.13       8.39
O       4.10      15.28       5.20
C       6.37      18.24       8.28
O       5.20      17.74       5.01
C       6.31      18.28       4.69
O       4.16      15.47       7.94
O       5.26      17.88       7.76
O       1.84      15.46       5.08
O       3.03      17.48       6.41
O       7.52      17.87       7.91
O       7.45      18.01       5.21
O       6.37      15.82       6.49
