10

Al       0.00      14.52      16.76
O      -1.06      15.47      18.05
O      -1.06      15.15      15.30
O      -1.06      12.93      16.94
O       1.06      16.11      16.94
O       1.06      13.57      18.05
O       1.06      13.88      15.30
C      -1.99      16.30      17.79
C      -1.99      14.52      14.71
C      -1.99      12.74      17.79
