36

Zn      -1.47      -2.56       8.71
Zn      -4.08      -6.38       8.75
Zn      -1.57      -5.33       6.95
Zn      -4.00      -3.62      10.50
C      -2.15      -5.36      12.17
C       0.38      -3.65       5.18
C      -2.25      -7.25      11.03
N      -0.42      -2.60       6.94
N      -3.40      -4.73       6.45
N      -4.38      -2.63       8.80
N      -4.45      -5.17       7.20
N      -3.33      -2.20       8.05
N      -5.71      -4.74      10.61
N      -0.48      -3.76       6.21
N      -1.81      -1.61      10.50
N      -3.08      -7.76       7.63
N      -0.53      -5.33       8.66
N      -2.79      -5.12      11.01
N      -2.85      -6.29      10.31
N      -0.51      -4.17       9.38
N      -2.88      -2.07      11.25
N      -2.03      -7.32       6.86
N      -5.73      -5.89       9.86
C       0.48      -1.78       6.35
C       0.58      -4.19      10.18
C      -2.99      -1.28      12.33
C      -6.97      -6.40       9.91
C      -1.41      -8.41       6.37
C      -3.87      -4.33       5.26
C      -5.46      -1.90       8.47
C      -5.58      -5.04       6.47
C      -1.28      -0.55      11.15
C      -3.75      -1.21       7.26
C      -3.09      -9.10       7.61
C      -6.95      -4.55      11.10
C       0.55      -6.06       9.01
