20

Zn       9.27       7.41       8.41
Zn       6.25       7.41       8.47
C       7.48       9.94       8.06
C       7.51       4.88       8.27
C       8.31       7.18       5.90
C       7.85       7.96      10.94
C       3.30       7.94       7.41
C      12.17       6.77       9.40
C       3.31       7.35       9.62
C      12.14       8.74       8.21
N       4.00       7.54       8.49
N      11.45       7.73       8.76
O       8.60       9.37       8.07
O       6.37       5.43       8.38
O       6.32       9.40       8.14
O       8.64       5.43       8.49
O       9.47       7.21       6.40
O       6.70       7.77      10.44
O       7.21       7.21       6.53
O       8.97       7.79      10.36
