23

Zn       9.60       0.07       7.61
Zn       8.00       1.69       5.33
Zn       8.01      -1.51       5.28
Zn       6.39       0.07       7.59
C       7.99       0.10      10.07
C      10.55      -2.47       6.45
C       5.49       2.66       6.50
C      10.56       2.61       6.43
C       5.47      -2.47       6.40
C       7.98       0.14       2.84
O       6.86       0.01       9.48
O       8.14      -0.99       3.40
O      10.70      -1.53       7.30
O       6.49       2.88       5.74
O       8.01       0.07       6.45
O      10.71       1.67       7.28
O       9.64       2.74       5.57
O       5.28      -1.49       7.18
O       6.45      -2.65       5.60
O       9.61      -2.62       5.61
O       5.30       1.68       7.29
O       9.14       0.15       9.52
O       7.81       1.27       3.42
