20

Zn       4.44       4.77       6.19
Zn       1.76       5.21       5.52
C       2.70       2.43       5.72
C       8.77       4.93       5.93
C       7.32       5.14       5.91
C       6.86       3.01       6.88
C       9.17       6.56       4.23
C       3.72       7.50       6.09
C       2.36       4.90       8.36
C       3.60       5.21       3.30
N       9.59       5.57       5.18
N       6.47       4.28       6.34
O       3.89       2.85       5.90
O       2.57       7.07       5.77
O       1.66       3.15       5.56
O       4.75       6.80       6.34
O       3.59       4.76       8.05
O       2.35       5.23       3.57
O       1.39       5.13       7.57
O       4.56       5.06       4.11
