54

Zr       5.90      -2.29       5.74
Zr       2.36      -5.77       6.04
Zr       4.24      -3.93       8.40
Zr       4.02      -4.14       3.39
Zr       2.37      -2.24       5.90
Zr       5.89      -5.82       5.89
H       4.25      -1.17       7.75
H       1.27      -4.09       4.03
H       4.19      -6.73       7.97
H       6.83      -4.14       3.81
C       4.15       0.45       5.66
C      -0.34      -3.95       6.13
C       4.12      -8.51       5.95
C       8.61      -4.09       5.83
C       6.61      -1.72       8.83
C       6.21      -1.85       2.56
C       1.77      -6.45       2.95
C       1.91      -6.08       9.20
C       1.98      -1.72       9.11
C       6.53      -6.10       9.10
C       6.17      -6.46       2.69
C       1.87      -1.82       2.68
O       5.28      -0.14       5.61
O       0.22      -5.09       6.16
O       2.99      -7.92       6.03
O       8.04      -2.95       5.73
O       5.75      -2.55       9.30
O       5.36      -2.73       2.20
O       2.61      -5.61       2.47
O       2.80      -5.24       9.58
O       1.67      -1.44       7.90
O       6.78      -6.45       7.89
O       6.51      -6.70       3.90
O       1.60      -1.51       3.89
O       5.68      -5.23       9.47
O       5.30      -5.61       2.30
O       2.66      -2.75       2.30
O       2.90      -2.54       9.48
O       6.79      -1.49       7.58
O       1.64      -6.41       8.00
O       1.54      -6.64       4.20
O       6.55      -1.57       3.76
O       8.04      -5.23       5.84
O       3.00      -0.10       5.73
O       0.24      -2.81       6.06
O       5.27      -7.94       5.95
O       6.06      -4.12       4.39
O       4.19      -5.96       7.39
O       2.08      -4.06       4.57
O       4.20      -1.98       7.21
O       2.71      -3.96       6.99
O       4.09      -2.61       4.79
O       4.09      -5.54       4.92
O       5.64      -4.01       6.86
