20

Zn       8.19       7.52      11.66
Zn       5.36       7.56      11.67
C       6.83      10.20      12.08
C       6.77       4.94      11.54
C       6.79       7.92       9.13
C       6.74       7.14      14.20
C       2.61       8.55      11.15
C      10.92       6.32      11.64
C       2.66       6.45      12.14
C      10.94       8.63      11.75
N       3.32       7.52      11.64
N      10.24       7.48      11.69
O       7.89       9.50      12.34
O       5.68       5.54      11.76
O       7.82       5.55      11.04
O       5.72       9.64      11.72
O       7.89       8.14       9.75
O       5.65       7.57      13.70
O       7.82       6.90      13.57
O       5.68       7.64       9.66
