13

C       4.86      13.71      14.26
N       3.73      17.65      12.39
C       7.76      15.94      13.18
C       3.80      15.59       9.44
N       6.77      16.56      12.46
N       4.39      14.90      13.84
Zn       4.86      16.01      12.24
C       4.02      18.78      13.14
C       4.78      13.80      10.20
C       7.31      17.71      12.00
C       3.57      15.35      14.86
C       2.45      17.80      12.00
N       4.48      15.07      10.53
