24

Al      10.51       0.59      27.35
Al       7.31       0.54      27.34
Al       8.66       3.21      27.31
C       8.69      -0.87      29.26
C       6.62       2.62      29.19
C      10.63       2.95      29.21
C       8.71      -0.86      25.40
C       6.58       2.55      25.47
C      10.64       2.91      25.40
O       7.44       3.50      28.74
O       9.94       3.79      28.52
O      11.11       1.91      26.01
O       9.82      -0.46      25.83
O       7.61      -0.84      26.12
O       6.36       1.37      25.92
O       7.22       3.45      26.11
O       9.73       3.70      25.87
O       8.81       1.46      27.34
H      12.71       0.07      26.77
O      10.97       1.79      28.85
O       9.80      -0.63      28.72
O       7.52      -0.65      28.76
O       6.28       1.55      28.58
O      12.04      -0.25      27.38
