62

Hf      10.09      14.64       1.66
Hf      10.19      14.82      -1.87
O      10.26      16.71       1.45
Hf      12.09      17.53       1.85
O      12.25      15.30       2.00
Hf      13.18      14.74      -0.00
Hf       9.12      17.59      -0.01
H       7.95      14.95      -0.10
O      12.36      15.44      -2.01
H      12.71      15.00       2.80
H      10.84      14.48      -4.49
O      10.33      16.82      -1.47
Hf      12.23      17.67      -1.67
H      12.81      15.15      -2.81
H      11.44      17.78       4.41
H      10.95      15.89       3.99
H       9.20      12.14       1.51
H       8.93      12.87      -0.34
H      14.28      19.12       1.73
H      10.76      14.29       4.37
H       9.44      12.21      -1.77
H      14.23      19.41      -1.55
H      11.41      18.04      -4.23
O      11.19      18.61       0.08
H      11.21      19.58       0.08
C      12.41      12.41       2.11
C       7.34      16.30      -2.32
C      12.50      12.50      -2.21
C       7.28      16.20       2.19
C       9.74      19.70       2.34
C      15.12      16.26      -2.08
C       9.79      19.79      -2.23
C      15.06      16.15       2.18
O      12.85      16.75       0.06
H      11.32      16.42      -4.01
H      13.47      19.40       0.33
O      11.25      12.86       2.41
O      13.23      12.91       1.28
O       8.16      15.40      -2.65
O       7.50      17.20      -1.43
O      11.36      12.96      -2.53
O      13.32      13.01      -1.38
O       8.10      15.27       2.49
O       7.44      17.11       1.32
O       8.92      12.97       1.10
O      10.34      15.02       3.88
O       8.98      12.99      -1.41
O      10.51      15.20      -3.92
O      11.17      14.37      -0.07
O       8.86      15.30      -0.09
O      10.86      19.20       2.70
O       8.97      19.27       1.42
O      14.32      17.22      -2.35
O      14.92      15.29      -1.27
O      10.93      19.31      -2.57
O       9.03      19.36      -1.31
O      14.25      17.09       2.46
O      14.85      15.18       1.38
O      13.39      19.31       1.39
O      11.82      17.04       3.90
O      13.36      19.37      -1.13
O      11.92      17.29      -3.88
