18

Al       6.03      10.93       8.87
Al       2.62      10.95       8.83
O       3.19       9.50       7.73
O       5.46       9.94      10.44
O       6.57      12.41      10.01
O       5.47       9.50       7.75
O       6.59      11.88       7.33
O       3.19       9.98      10.43
O       4.32      11.75       8.76
O       8.85      11.84       7.25
O       8.86      12.44       9.95
O       7.73      10.15       9.08
H       4.32      12.62       9.17
H       7.73       9.56       9.86
C       4.32       9.71      10.94
C       4.34       9.08       7.36
C       7.71      12.13       6.78
C       7.72      12.84      10.36
