23

Zn      11.95      11.95      18.39
Zn       9.69      11.95      16.12
Zn       9.69       9.69      18.39
Zn      11.95       9.69      16.12
C      10.82      14.44      17.26
C       7.20      10.82      17.26
C      10.82      10.82      20.88
O      10.82      10.82      17.26
O      11.63      13.86      18.06
C      14.44      10.82      17.26
O      10.02      10.02      20.30
O       7.78      11.63      16.45
O      11.63      11.63      20.30
O      10.01      13.86      16.46
O       7.78      10.01      18.06
O      10.01       7.78      18.06
O      13.86      10.01      16.45
O      13.86      11.63      18.06
O      10.02      11.63      14.22
O      11.63       7.78      16.46
O      11.63      10.02      14.22
C      10.82       7.20      17.26
C      10.82      10.82      13.64
