20

Zn       8.84       6.96       9.41
Zn       5.77       6.94       9.81
C       7.16       9.51       9.68
C       3.07       6.00      10.88
C      11.53       7.94       8.31
C       2.88       7.59       9.15
C      11.74       6.36      10.05
C       7.24       4.38       9.60
C       7.11       6.80       7.04
C       7.73       7.07      12.16
N      10.96       7.06       9.22
N       3.65       6.88       9.98
O       8.20       8.92       9.24
O       6.10       4.95       9.62
O       6.07       8.94      10.00
O       8.37       4.96       9.66
O       8.30       6.67       7.45
O       6.57       6.79      11.74
O       6.07       7.01       7.73
O       8.77       7.29      11.46
