13

N       8.75      16.96      14.92
C      10.17      19.34      17.62
Ni       9.62      16.58      16.69
O       7.97      17.08      17.86
C       9.38      16.78      13.74
O      11.19      15.41      16.02
N      10.65      18.29      16.93
C       7.44      17.24      14.92
O       9.26      14.40      16.45
C       8.48      16.51      18.89
C      11.89      18.38      16.42
C      10.49      14.34      16.16
O       9.68      16.06      18.85
