54

Cu      -2.72      -0.35      12.20
Cu      -5.01       2.93       7.72
Cu      -0.43      -2.59       7.12
Cu      -4.15       0.35      14.84
Cu      -1.86      -2.94      19.32
Cu      -6.44       2.58      19.92
C      -1.62       1.84      13.85
C      -3.91       3.28       5.00
C       0.67      -5.11       8.18
C      -5.25      -1.84      13.18
C      -7.55       4.52       8.52
C      -2.97      -2.69       5.34
C      -0.13       0.90      12.01
C      -2.42       2.15       6.73
C       2.16      -3.05       8.29
C      -6.74      -0.90      15.02
C      -4.45      -2.15      20.30
C      -9.03       3.05      18.75
C      -0.56      -0.84      10.44
C      -2.85       1.65       9.03
C       1.73      -0.82       7.57
C      -6.31       0.84      16.60
C      -4.02      -1.66      18.01
C      -8.60       0.82      19.47
C      -1.73      -1.74      10.04
C      -4.02       1.76      10.00
C       0.56      -0.02       6.99
C      -5.14       1.74      16.99
C      -2.85      -1.76      17.03
C      -7.44       0.02      20.05
N      -0.95       0.01      11.55
N      -3.25       2.19       7.73
N       1.34      -2.21       7.76
N      -5.92      -0.01      15.49
N      -3.63      -2.19      19.30
N      -8.21       2.20      19.28
O      -2.55       0.88      13.74
O      -4.83       3.66       5.89
O      -0.26      -4.54       7.41
O      -4.33      -0.88      13.30
O      -6.62       4.15       7.63
O      -2.04      -3.27       6.11
O      -2.82      -1.62      10.73
O      -5.11       2.30       9.55
O      -0.53      -0.68       6.75
O      -4.06       1.62      16.30
O      -1.76      -2.30      17.48
O      -6.35       0.68      20.29
O      -1.63      -2.54       9.08
O      -3.92       1.33      11.17
O      -6.21       1.20       6.77
O      -5.24       2.53      17.95
O      -2.95      -1.33      15.86
O      -0.66      -1.20      20.26
