13

Co       5.15       4.09       3.68
N       4.92       5.77       4.80
N       5.97       4.97       2.02
C       3.51       2.61       2.51
C       6.96       5.87       2.19
C       5.45       4.83       0.78
C       3.88       6.60       4.53
C       5.72       6.11       5.83
O       7.32       3.82       4.45
O       5.52       2.73       5.16
O       3.21       3.69       3.18
O       4.73       2.28       2.40
C       6.79       2.92       5.19
