23

Zn      19.97       9.66       0.81
Zn      20.62      11.14      -1.90
Zn      18.75      12.53       0.27
Zn      21.84      12.23       0.82
O      20.00       8.20      -0.50
C      18.29      12.86      -2.67
O      20.29      11.39      -0.00
C      20.29       8.18      -1.76
O      19.25      12.05      -2.98
C      17.24      10.43       1.76
O      17.30      11.59       1.20
O      18.23       9.60       1.71
C      22.29       9.92       2.67
O      18.02      13.16      -1.45
O      19.18      14.13       1.32
O      22.57      11.12       2.27
O      21.33       9.23       2.16
O      22.36      11.87      -2.44
O      20.59       9.25      -2.42
C      20.29      14.60       1.76
O      21.41      13.97       1.61
O      23.29      12.51      -0.47
C      23.35      12.36      -1.76
