23

Zn      16.22      16.27      22.46
Zn      17.74      15.33      25.14
Zn      15.98      18.03      25.10
Zn      14.51      15.20      24.97
C      18.82      14.89      22.41
C      18.52      17.70      26.67
O      16.12      16.19      24.42
O      17.86      15.44      21.77
O      18.79      16.49      26.35
C      16.12      13.20      26.42
C      16.11      19.22      22.41
C      13.39      17.53      26.41
O      17.51      18.36      26.28
O      14.36      18.33      26.15
O      13.48      14.57      23.41
O      13.29      16.31      26.04
O      14.70      15.33      21.63
C      13.71      14.71      22.16
O      16.03      19.37      23.68
O      18.93      14.77      23.68
O      16.19      18.11      21.77
O      14.98      13.63      26.04
O      17.26      13.72      26.17
