15

Cu      24.47       6.13       4.86
Cu      26.34       7.01       7.23
Cu      24.90       4.15       7.29
N      23.86       3.61       5.86
N      23.54       4.54       4.90
N      26.01       4.64       8.68
N      26.63       5.87       8.65
C      25.90       8.32       3.57
C      27.10       9.04       5.28
C      23.34       2.42       5.48
C      22.81       3.93       3.95
C      27.58       5.88       9.61
C      26.57       3.92       9.68
N      26.26       8.08       5.73
N      25.51       7.64       4.67
