13

Zn       5.01      11.85      16.61
N       4.39      13.37      15.49
C       4.86      13.71      14.26
C       3.87      10.33      18.98
C       7.61      13.36      17.00
C       3.58      14.42      15.87
C       7.34      11.85      18.52
N       3.69      11.30      18.01
N       5.39      10.20      15.53
C       2.47      11.82      18.25
C       4.95       9.87      14.31
C       6.01       9.07      16.03
N       6.73      12.42      17.47
