18

Zn       6.04       8.06       9.60
Zn       8.81       8.06       9.62
O       8.52      10.07       9.41
C       7.43       7.96      12.21
O       6.32       7.77      11.61
C       7.44       8.01       7.01
O       8.54       8.24      11.66
N       4.01       8.03       9.59
N      10.84       8.04       9.63
O       6.33       6.03       9.35
O       8.55       6.02       9.88
O       6.34       8.30       7.59
C       2.86       7.99       9.59
C      11.99       8.00       9.62
C       7.41      10.65       9.66
C       7.43       5.46       9.63
O       8.55       7.79       7.59
O       6.29      10.08       9.88
