23

Zn      19.98       9.64       0.84
Zn      20.62      11.15      -1.93
Zn      18.73      12.54       0.24
Zn      21.87      12.21       0.84
C      20.30       8.22      -1.73
C      18.32      12.84      -2.67
C      17.28      10.44       1.73
C      20.30      14.55       1.73
C      22.28       9.93       2.67
C      23.33      12.33      -1.73
O      20.30      11.39      -0.00
O      20.07       8.19      -0.48
O      19.31      12.11      -3.01
O      17.32      11.62       1.25
O      20.54       9.25      -2.43
O      18.20       9.56       1.66
O      17.96      13.10      -1.47
O      19.19      14.16       1.25
O      22.64      11.08       2.24
O      21.41      13.94       1.66
O      21.29       9.25       2.24
O      22.41      11.80      -2.43
O      23.28      12.56      -0.48
