24

Al       9.02       3.14      28.09
O       5.77       5.98      26.85
Al       5.82       3.05      28.15
Al       7.14       5.74      28.17
O       9.50       4.44      26.67
O       6.09       1.78      26.82
O       8.35       2.02      26.63
O       8.27       6.34      26.83
O       4.77       3.94      26.84
O       9.52       4.32      29.61
O       5.80       6.02      29.47
O       6.07       1.77      29.45
O       8.35       1.88      29.47
O       8.33       6.26      29.51
O       4.81       3.98      29.47
O       7.31       3.99      28.13
O      10.60       2.41      28.01
H      10.97       2.10      28.85
C       7.22       1.64      26.21
C       9.06       5.53      26.21
C       5.01       5.09      26.34
C       7.24       1.51      29.95
C       9.14       5.43      30.08
C       5.01       5.14      29.96
