18

Al       5.57      15.51       6.50
O       3.91      14.69       6.40
Al       2.25      15.48       6.61
O       7.24      16.30       6.72
C       3.94      16.76       8.62
C       7.26      14.23       4.49
C       3.87      17.35       5.00
C       7.19      13.64       8.11
O       2.77      16.95       5.51
O       6.10      14.04       7.61
O       5.06      16.51       8.08
O       6.11      14.56       4.92
O       1.73      14.48       5.04
O       5.04      16.96       5.34
O       1.71      14.04       7.78
O       2.79      16.43       8.20
H       3.89      13.95       5.78
H       7.22      17.04       7.34
