23

Zn      11.07      12.03       9.17
Zn      13.52      10.91       7.43
Zn      13.69      13.73       9.09
Zn      12.05      13.46       6.37
C      13.26      11.47       4.59
C      11.88      13.70      11.42
C      11.74       9.14       8.96
C      13.44      15.93       7.14
C      15.94      11.89       8.84
C       9.22      12.84       6.98
O      12.58      12.53       8.01
O      15.41      11.17       7.93
O      10.10      13.27       6.15
O      15.40      12.83       9.50
O       9.43      12.47       8.18
O      11.07      10.08       9.50
O      12.58      15.34       6.40
O      13.38      10.59       5.50
O      12.92      14.17      10.83
O      12.94      12.69       4.77
O      11.04      12.88      10.92
O      12.73       9.26       8.16
O      14.02      15.42       8.16
