23

Zn      16.19      16.28      22.45
Zn      17.72      15.34      25.12
Zn      15.97      18.04      25.11
Zn      14.52      15.21      24.98
O      16.10      16.22      24.41
O      17.84      15.46      21.77
C      18.80      14.91      22.40
C      18.49      17.75      26.68
O      18.70      16.56      26.31
O      16.01      19.39      23.69
C      13.69      14.71      22.15
O      14.34      18.35      26.16
O      13.48      14.58      23.42
O      18.91      14.78      23.67
O      14.67      15.33      21.64
O      13.29      16.32      26.04
C      13.38      17.53      26.41
C      16.09      19.23      22.42
O      16.17      18.13      21.78
O      17.48      18.48      26.32
C      16.12      13.21      26.41
O      17.25      13.74      26.15
O      14.97      13.63      26.04
