23

Zn      28.23      20.18      14.62
Zn      26.58      21.16      17.17
Zn      24.99      20.25      14.53
Zn      26.68      23.00      14.63
O      24.04      21.48      13.31
O      24.96      20.30      17.84
O      28.05      23.24      13.26
O      23.77      19.72      15.98
O      29.37      21.40      13.58
O      29.14      19.38      16.16
O      24.96      23.51      13.80
O      26.45      22.98      17.91
O      25.44      18.65      13.48
O      26.60      21.13      15.22
O      27.14      24.21      16.12
O      27.72      18.70      13.42
O      28.19      20.41      17.97
C      26.81      24.06      17.33
C      26.58      18.25      13.08
C      29.04      19.63      17.41
C      24.16      22.74      13.18
C      23.94      19.82      17.24
C      29.05      22.49      13.01
