23

Zn      22.38       7.84       0.56
Zn      23.87      10.67       0.70
Zn      25.58       7.94       0.70
Zn      24.08       8.90      -1.96
C      21.27      10.18       2.00
C      26.37      10.34       2.26
C      23.97       5.82       2.00
C      26.68       7.51      -2.01
C      21.58       7.34      -2.26
C      23.98      11.86      -1.99
O      23.98       8.84      -0.00
O      21.16       8.95       1.63
O      25.38      11.06       1.90
O      25.11       6.34       1.74
O      22.23      10.98       1.74
O      22.82       6.26       1.63
O      26.59       9.13       1.90
O      26.79       7.38      -0.74
O      22.56       7.96      -2.79
O      25.72       8.07      -2.64
O      21.36       7.21      -1.01
O      23.90      12.02      -0.73
O      24.05      10.75      -2.63
