20

Zn      10.38       8.71       9.61
Zn       7.55       8.50       9.73
C       9.25       6.03       9.48
C       8.67      11.18       9.86
C       4.76       8.65       8.68
C      13.17       8.55      10.66
C       9.03       8.39      12.30
C       8.90       8.83       7.04
C       4.90       7.90      10.89
C      13.03       9.30       8.46
N       5.51       8.29       9.75
N      12.42       8.91       9.59
O      10.34       6.67       9.39
O       7.57      10.54       9.95
O       8.09       6.54       9.60
O       9.83      10.67       9.74
O      10.14       8.47      11.66
O       7.80       8.75       7.68
O       7.87       8.37      11.79
O      10.07       8.86       7.55
