18

Al       2.46      -3.62      18.50
Al       5.79      -3.65      18.58
O       5.26      -4.87      19.97
O       1.93      -2.40      17.12
O       2.99      -4.88      17.14
O      -0.34      -2.39      19.95
O       3.00      -4.84      19.89
O      -0.33      -2.43      17.20
O       1.94      -2.39      19.89
O       5.27      -4.88      17.20
O       4.13      -2.83      18.52
O       0.80      -4.44      18.56
H       4.16      -1.92      18.18
H       0.83      -5.35      18.90
C       4.15      -5.17      16.67
C       0.82      -2.10      20.41
C       4.11      -5.19      20.41
C       0.78      -2.08      16.67
