65

Hf       9.22       8.48       8.67
O      10.05       6.37       8.20
O      11.22       8.55       8.18
Hf      10.28       5.59      10.32
O      10.31       9.91      10.06
Hf      10.52       8.69      11.94
Hf      12.40       9.84       9.22
Hf      12.17       6.73       7.60
O      13.50      10.08       7.22
O      12.31       8.74      10.95
O      13.55       8.00       8.85
O       9.18       7.55      13.47
O      11.46       6.56      11.98
O      12.16       6.05       9.61
O       9.89       4.37      11.81
O      10.70       3.79       9.05
H       9.90      10.78      10.15
O      10.83       7.12       5.77
O      11.80       4.74       7.02
H       9.59       5.84       7.52
O      12.33      11.61      10.66
O      14.46      10.22       9.82
H       9.83       7.69      14.20
H      10.12      11.28      12.72
O      10.91      10.74      12.53
O      11.51       8.53      13.83
H      12.62       4.26       6.82
H      11.62       9.44      14.14
H      14.16       7.44       5.89
H       7.91       7.80       6.45
H      11.41       7.66       5.19
Hf      13.44       6.97      10.92
H      14.43       8.35      13.09
H       9.37       3.56      11.90
H      12.89       8.00      13.50
H      13.45       9.18       6.67
H      11.18       4.10       8.14
H      11.98      12.43      10.28
H       8.37       8.04      13.67
H       9.98       7.65       5.99
O      13.93       5.21      11.91
O      15.05       6.03       9.74
C       7.58       9.92      11.08
C      10.23      11.41       7.52
C       7.42       5.76       8.87
C      13.80       4.66      13.08
C      15.11       5.65       8.53
C      15.37       9.49      10.35
O      13.29       7.81       6.12
H      11.59       5.96      12.76
O      14.18       5.72       7.64
H      14.43       8.14       8.47
H      11.73      11.34      11.51
O      13.77       7.63      13.08
O      15.20       8.39      10.97
H       9.95       3.22       8.83
H      13.09      10.78       6.69
O       8.72       8.28       6.68
O       7.64       9.53       9.87
O       7.44       7.01       8.67
O      11.42      11.41       8.03
O       8.20       5.08       9.62
O       9.29      10.61       7.79
O       8.42       9.66      12.01
O       9.59       7.50      10.49
