15

N      23.38       7.79       5.49
N      22.36       7.85       4.58
Cu      21.02       6.57       4.64
Cu      23.34       6.50       6.81
N      19.74       5.24       4.58
N      23.38       5.19       8.11
N      19.80       4.21       5.50
Cu      21.09       4.25       6.82
N      22.40       4.21       8.11
C      22.65       8.78       3.66
C      24.31       8.70       5.14
C      18.89       3.28       5.14
C      18.81       4.94       3.66
C      24.27       4.90       9.07
C      22.70       3.32       9.07
