20

Zn       6.29       5.49       6.38
Zn       8.96       5.53       5.87
C       7.64       8.12       6.10
C       8.03       5.40       8.69
C       7.68       2.90       6.08
C       7.20       5.35       3.55
C       2.26       4.49       5.58
C       3.63       4.47       5.85
C       3.46       6.52       6.90
C       2.11       6.57       6.58
N       4.22       5.48       6.51
N       1.52       5.54       5.93
O       6.57       7.52       6.43
O       8.74       7.57       5.78
O       6.86       5.15       8.28
O       9.02       5.75       7.95
O       6.54       3.46       5.97
O       8.80       3.51       6.19
O       6.24       5.71       4.30
O       8.43       5.24       3.91
