18

Al       3.06       7.50       8.73
Al       6.38       7.50       8.73
H       4.74       5.98       7.86
H       1.39       9.02       9.60
O       4.72       6.90       8.15
O       2.57       5.65       9.01
O       6.87       7.78       6.88
C       1.44       5.08       8.83
C       1.36       7.64       6.32
C       4.68       9.91       8.63
C       4.77       7.36      11.15
O       5.79       9.31       8.82
O       3.66       7.59      10.56
O       3.56       9.35       8.46
O       5.90       7.21      10.58
O       6.98       5.68       8.64
O       2.46       7.41       6.91
O       1.40       8.10       9.31
