19

N       5.64       3.71       1.87
Zn       7.17       5.78      -1.51
N       6.22       7.01       2.08
C       9.04       5.32       3.79
Zn       7.08       5.19       1.89
O       6.17       7.45      -1.67
O       6.24       4.11      -2.11
O       8.02       5.25       0.18
O       8.26       4.41       3.29
C       8.57       7.35      -3.62
C       9.77       5.49      -2.91
C       5.86       2.62       2.63
C       4.55       3.72       1.07
C       4.91       7.13       2.33
H       8.22       4.33      -0.09
C       6.72       2.99      -1.69
C       6.92       8.13       1.80
C       4.98       7.45      -1.13
N       8.64       6.23      -2.86
