18

Al       0.16      15.79       9.44
Al      -3.18      15.84       9.48
O      -1.50      16.64       9.43
O       1.84      14.99       9.41
H      -1.47      17.48       8.94
H       1.89      14.16       8.91
C       1.86      17.46       7.69
C       1.76      17.36      11.29
C      -1.55      14.23      11.25
C      -1.49      14.21       7.65
O       0.76      17.19       8.27
O      -3.80      17.14      10.73
O      -2.68      14.78      11.00
O      -0.34      14.71       7.90
O      -0.47      14.42      10.60
O      -2.57      14.45       8.28
O      -3.67      16.99       7.97
O       0.64      16.84      10.96
