18

O       4.33      13.42       4.53
Al       1.58      14.70       5.81
C       3.22      13.16       3.96
Al       4.91      14.71       5.82
C       6.62      16.25       7.68
O       2.08      13.59       4.33
O       5.50      16.01       7.12
O       1.01      16.05       4.55
O       4.41      13.52       7.26
O       3.24      15.52       5.84
O       1.08      15.81       7.29
O       6.58      13.89       5.80
O       2.15      13.34       7.06
H       3.23      16.43       5.49
H       6.58      13.01       6.21
C       3.28      13.06       7.58
O       5.42      15.91       4.39
C       6.56      16.36       4.05
