24

Al      11.15       6.61      14.44
Al       9.52       3.83      14.40
Al       7.94       6.37      14.41
O       9.52       5.59      14.41
O      12.62       7.54      14.49
H      13.12       7.61      13.66
C      11.44       4.28      16.34
C       7.38       4.26      16.22
C       9.21       7.95      16.30
C      11.53       4.27      12.55
C       7.44       4.30      12.50
C       9.21       7.94      12.52
O      10.36       7.73      15.83
O      11.74       5.42      15.90
O       8.25       3.47      13.02
O      10.72       3.39      15.76
O       8.19       3.42      15.68
O       6.99       5.36      15.69
O       8.08       7.63      15.77
O      10.36       7.68      12.96
O      11.82       5.40      13.02
O      10.78       3.38      13.11
O       7.05       5.39      13.03
O       8.09       7.70      13.12
