18

Al       1.22      13.54      19.41
C       2.88      14.88      21.46
Al       4.53      13.54      19.47
C      -0.48      12.20      17.41
C       2.86      15.37      17.86
C      -0.41      11.70      21.02
O       3.97      15.03      18.41
O       0.72      12.15      20.64
H       2.89      11.93      18.76
O       1.77      14.66      20.87
O      -1.61      12.57      17.87
O       1.72      14.89      18.14
O      -1.55      12.07      20.59
O       0.66      12.45      17.92
H      -0.42      15.12      20.14
O       4.03      14.47      21.08
O       2.88      12.73      19.31
O      -0.45      14.34      19.57
