26

Co       3.68       9.86      19.00
Co       0.75       9.97      14.66
N      -0.27      11.51      13.80
N       2.65       8.31      19.86
N       4.49      11.60      18.10
N       7.41       8.23      15.56
O       2.26      10.28      17.62
O       5.18       9.54      16.04
O       4.77      10.26      20.70
O       1.84       9.56      12.96
O       2.73      11.13      20.72
O      -0.20       8.69      12.94
O       2.02      11.27      15.60
O       4.94       8.56      18.06
C       2.60      11.12      16.72
C       5.52       8.70      16.94
C       3.77      12.00      17.03
C       6.69       7.82      16.63
C       5.56      12.30      18.48
C       8.49       7.53      15.18
C       3.17       7.07      20.03
C       0.24      12.75      13.63
C       1.44       8.57      20.40
C      -1.48      11.25      13.26
C       3.82      10.89      21.32
C       0.89       8.94      12.34
