23

Zn       7.55       9.02      15.54
Zn       7.44      10.85      18.23
Zn       9.03      11.90      15.68
Zn       5.86      11.77      15.61
O       7.47      10.85      16.27
O       7.52       7.69      17.00
O       8.95      11.78      19.08
O      10.24      10.78      14.62
C       7.48       7.88      18.27
O       9.21       8.74      14.50
C      10.16       9.56      14.26
O       7.45       9.00      18.88
C       5.06       9.38      14.02
O      10.02      12.56      17.23
O       6.04       8.62      14.33
O       5.80      11.70      18.90
O       8.59      13.48      14.60
O       4.87      10.56      14.44
O       6.31      13.37      14.56
O       4.65      12.35      17.04
C       4.80      12.22      18.30
C       9.89      12.42      18.49
C       7.43      13.90      14.26
