10

Al       0.27       8.61       0.00
C       2.31      10.38      -0.99
C       2.31       8.58       2.03
C       2.31       6.87      -1.04
O       1.38       7.05      -0.18
O       1.38       9.54      -1.25
O       1.38       9.22       1.43
O      -0.80       7.56      -1.18
O      -0.80       8.11       1.49
O      -0.80      10.15      -0.32
