20

Zn       6.70       5.62       2.17
Zn       3.72       5.64       2.17
N       8.85       5.58       2.24
N      11.62       5.71       2.15
O       6.17       3.63       2.04
O       3.91       3.58       1.95
O       4.29       5.99       0.21
O       6.54       5.72       0.10
O       4.02       7.66       2.43
O       6.27       7.64       2.17
O       6.38       5.39       4.21
O       4.14       5.28       4.15
C       5.05       3.02       2.01
C       5.39       5.91      -0.42
C       5.15       8.22       2.28
C       5.25       5.11       4.74
C       9.53       6.38       3.10
C      10.94       4.98       1.24
C      10.94       6.39       3.10
C       9.54       4.84       1.35
