24

Al      -1.98       8.41      28.42
Al      -0.23       5.72      28.47
Al       1.23       8.34      28.50
O      -1.20       9.57      27.04
O      -1.39       5.26      27.09
O       2.21       7.38      27.19
O      -2.59       7.15      29.86
O       1.08       5.42      29.83
O       0.98       9.61      29.83
O      -1.30       9.53      29.91
O      -1.44       5.18      29.76
O       2.21       7.40      29.82
O      -0.31       7.48      28.47
O      -2.51       7.24      26.95
O       1.13       5.37      27.20
O       1.07       9.63      27.18
O      -3.52       9.24      28.37
H      -3.84       9.58      29.21
C      -0.06       9.86      26.59
C      -0.17       9.83      30.38
C      -2.26       6.02      30.32
C       1.90       6.26      30.33
C      -2.12       6.13      26.48
C       1.92       6.24      26.68
