18

O       2.72      17.95       1.21
O      -0.62      20.77      -1.20
Al       2.19      19.35       0.01
Al       5.52      19.36      -0.00
O       2.72      20.71       1.28
O       6.05      18.02      -1.29
O       1.66      20.75      -1.19
O       4.99      17.96       1.19
O       3.85      19.41      -0.81
O       0.52      19.31       0.81
C       3.86      17.53       1.58
C       0.52      21.19      -1.57
C       3.86      21.17       1.60
C       0.52      17.54      -1.59
H       3.84      19.89      -1.65
H       0.52      18.81       1.65
O       5.00      20.71       1.28
O       1.66      17.99      -1.27
