23

Zn       3.97       7.83       8.81
O       5.74       7.93       7.96
Zn       3.28       6.33      11.53
O       3.63       6.08       9.62
Zn       5.20       4.93       9.32
O       3.88       9.29      10.12
Zn       2.06       5.21       8.81
O       5.95       4.38      11.05
O       6.61       5.85       8.32
O       3.38       8.21      12.07
O       2.63       8.19       7.42
O       4.75       3.30       8.32
O       4.62       5.35      12.58
O       1.51       5.66      12.07
O       1.31       6.38       7.42
O       0.64       4.86      10.12
O       2.51       3.50       7.96
C       6.66       7.04       7.87
C       5.61       4.63      12.25
C       3.63       9.26      11.37
C       0.60       5.11      11.37
C       1.64       7.53       6.99
C       3.63       2.89       7.87
