23

Zn      24.96      17.80      14.03
Zn      26.67      16.29      16.23
Zn      26.59      19.48      16.14
Zn      28.20      17.91      13.87
O      26.63      17.86      15.05
O      23.89      16.20      14.37
O      26.71      16.80      18.14
O      25.01      20.61      15.86
O      25.04      15.20      16.06
O      23.79      19.32      14.45
O      26.60      19.07      18.06
O      28.15      20.59      15.75
O      27.63      17.95      11.97
O      29.36      19.48      14.18
O      25.35      17.92      12.11
O      28.21      15.15      15.82
O      29.31      16.31      14.19
C      24.06      15.28      15.24
C      26.63      17.95      18.67
C      23.98      20.37      15.16
C      29.16      20.44      14.99
C      26.46      17.97      11.47
C      29.18      15.34      15.01
