40

Zn      15.11      -3.61      10.09
Zn      17.44      -5.58       6.20
Zn      14.87      -6.86       8.35
Zn      17.62      -2.30       8.04
C      14.91      -5.72      12.52
C      17.71      -3.35       3.92
C      20.44      -4.95       6.65
C      12.67      -3.39       8.45
C      17.36      -8.28       9.42
C      15.67       0.07       8.24
C      18.14      -1.28      10.92
C      13.90      -7.51       5.48
C      18.54      -8.12       7.55
C      14.47      -0.56      10.00
C      16.95      -2.75      12.06
C      14.96      -5.84       4.50
C      20.27      -3.53       8.35
C      12.41      -5.35       7.45
C      14.52      -7.48      11.24
C      18.26      -1.67       5.25
C      14.24      -8.70      10.50
C      18.86      -0.62       6.04
N      14.81      -5.31      11.23
N      15.05      -1.65       9.45
N      17.02      -3.17      10.78
N      15.62      -6.15       5.63
N      19.02      -3.88       7.96
N      13.63      -5.31       7.99
N      14.58      -6.38      10.46
N      17.54      -2.58       5.95
N      17.22      -3.61       5.16
N      19.14      -4.75       6.92
N      13.80      -4.11       8.61
N      16.86      -7.26       8.67
N      15.78      -1.27       8.38
N      17.77      -2.25      10.09
N      14.96      -7.19       6.25
N      17.59      -7.17       7.55
O      14.15      -8.72       9.25
O      18.74      -0.57       7.29
