14

Zn      11.97      15.46       7.74
C       9.50      14.36       8.93
H      14.44      15.00       8.25
O      12.63      16.34       9.41
C       9.12      15.73       8.65
C      11.10      12.69       8.75
H      14.27      14.21       6.92
C      11.86      15.29       5.14
N      10.74      13.96       8.56
C      12.82      17.60       9.60
C       9.71      17.77       7.74
N      10.02      16.51       8.01
O      12.25      16.29       5.88
O      13.82      14.37       7.81
