15

N       8.46       6.21       5.23
N       7.69       5.14       4.82
C       6.72       4.94       5.75
N       8.04       4.09       1.30
C       7.98       6.65       6.41
N       8.60       4.97       0.40
C       8.53       4.41      -0.83
C       7.62       3.01       0.62
C      11.20       8.88       0.98
Cu       9.65       6.99       4.07
Cu       9.46       6.49       0.99
Cu       7.90       4.58       3.07
N      10.72       7.96       2.93
N      10.45       7.92       1.59
C      11.62       8.94       3.16
