18

Al       5.72       8.66       8.41
Al       9.05       8.66       8.41
H       7.38       7.42       9.69
H       4.05       9.90       7.14
O       5.18       8.75      10.25
O       2.93       6.83       8.38
O       8.52       8.51       6.56
O       6.24      10.51       8.51
O       6.26       8.56       6.58
O       8.50      10.50       8.46
O       2.91       8.81      10.26
O       5.20       6.80       8.32
O       7.38       8.10       8.99
O       4.05       9.22       7.83
C       4.05       8.86      10.84
C       4.06       6.23       8.28
C       7.39       8.45       5.99
C       7.38      11.09       8.55
