10

Al       4.08      17.54      10.13
C       2.01      15.50      10.08
O       2.97      16.11       9.52
O       2.97      17.73      11.68
O       3.01      18.81       9.15
O       5.15      16.04      10.67
O       5.18      17.80       8.60
O       5.15      18.76      11.16
C       2.01      18.52      11.93
C       2.04      18.57       8.36
