22

Zn       6.24       5.46      11.85
Zn       3.38       5.45      11.88
C       4.84       8.02      11.94
C       4.74       2.90      11.85
C       4.83       5.48       9.26
C       4.89       5.42      14.47
C      10.02       6.36      10.93
C       9.17       4.57      12.71
C       9.10       6.66      12.14
C      10.08       4.26      11.51
C       9.16       5.11      10.61
C      10.03       5.81      13.04
N       8.24       5.42      11.82
N      10.94       5.51      11.83
O       5.94       7.47      12.26
O       3.63       3.42      12.18
O       3.78       7.44      11.57
O       5.80       3.50      11.49
O       5.91       5.83       9.83
O       3.79       5.74      13.92
O       3.74       5.15       9.83
O       5.96       5.08      13.88
