20

Zn       5.72       5.48       5.64
Zn       3.02       5.49       5.49
C       4.31       8.11       5.48
C       4.34       2.88       5.50
C       9.89       4.86       6.55
C       9.83       6.06       4.58
C       8.49       4.87       6.60
C       8.44       6.04       4.60
C       4.51       5.57       2.90
C       4.36       5.53       8.22
N       7.79       5.46       5.62
N      10.54       5.47       5.54
O       5.42       7.49       5.52
O       5.45       3.48       5.69
O       3.16       7.56       5.53
O       3.20       3.44       5.43
O       5.60       5.41       3.54
O       5.53       5.51       7.71
O       3.35       5.62       3.47
O       3.27       5.51       7.52
