18

Zn       5.49       2.10      18.75
C       7.11       4.31      20.01
N       4.10       7.32      19.09
O       3.69       2.14      19.54
Zn       4.62       5.37      18.74
O       6.35       5.30      19.78
C       2.97       3.13      19.89
O       5.43       5.27      16.90
O       6.85       3.09      19.76
C       2.85       7.74      18.83
C       4.32       5.24      16.21
C       5.33      -0.86      19.12
C       5.03       8.21      19.48
C       6.24       2.20      16.18
C       7.48       0.00      19.20
O       5.11       2.10      16.81
N       6.15       0.21      19.15
O       3.27       4.36      19.77
