14

Zn       8.55       0.32       0.95
Zn      10.03      -0.68      -1.06
O      10.04      -0.97       1.69
O      11.36      -1.65      -0.04
O       7.14      -1.00       0.97
O       8.39      -1.90      -0.71
O       7.96       1.03      -0.95
C      11.07      -1.54       1.22
O       9.44       2.00       1.37
C       7.38      -1.89       0.06
C       8.37       1.02      -2.16
C      10.45       2.08       0.57
O       9.34       0.28      -2.60
O      10.81       1.16      -0.24
