20

Zn       8.03       7.64       9.73
Zn       8.07      10.59       9.60
C       7.52       9.05       7.12
C       8.61       4.66       9.70
C       7.78      13.60       9.58
C       6.37       5.29       9.88
C       8.37       9.13      12.19
C       9.97      12.77       9.68
C       5.49       9.58      10.02
C      10.56       8.77       9.04
N       7.68       5.62       9.76
N       8.63      12.56       9.61
O       7.71       7.97       7.75
O       8.48      10.22      11.55
O       7.42      10.21       7.67
O       8.33       7.96      11.70
O       6.14       8.50      10.07
O       9.91       9.85       8.99
O       6.00      10.75       9.98
O      10.08       7.62       9.32
