18

Al       3.44       3.65       6.00
Al       6.77       3.69       5.98
H       5.07       3.27       4.30
H       1.78       4.94       7.24
O       6.27       3.00       7.70
O       3.92       5.52       5.96
O       4.07       3.52       7.80
O       6.14       5.46       6.40
O       7.26       4.32       4.21
C       1.75       4.22       3.64
C       1.82       1.27       5.87
C       5.16       3.11       8.31
C       5.05       6.08       6.17
O       2.95       1.81       6.09
O       5.11       3.18       5.27
O       1.78       4.17       6.65
O       2.83       3.80       4.17
O       0.76       1.95       5.56
