23

Zn      22.26       7.83       0.51
Zn      23.76      10.66       0.67
Zn      25.45       7.93       0.71
Zn      24.01       8.88      -1.98
C      21.18      10.13       2.01
C      26.27      10.36       2.19
C      23.82       5.85       2.03
C      26.59       7.52      -1.99
C      21.49       7.35      -2.30
C      23.75      11.82      -2.04
O      23.86       8.83      -0.02
O      21.08       8.90       1.67
O      25.27      11.08       1.85
O      24.95       6.43       1.88
O      22.12      10.94       1.72
O      22.70       6.20       1.52
O      26.51       9.17       1.79
O      26.57       7.25      -0.74
O      22.57       7.82      -2.80
O      25.72       8.20      -2.64
O      21.19       7.31      -1.06
O      23.75      12.00      -0.77
O      23.78      10.71      -2.67
