23

Zn       9.22      15.60       0.75
Zn      10.85      18.38       0.60
Zn       7.65      18.39       0.62
Zn       9.22      17.30      -1.96
C      11.80      16.07       2.15
C       9.28      20.49       1.93
C       6.68      16.06       2.17
C       6.68      18.78      -2.16
C       9.23      14.34      -1.91
C      11.80      18.77      -2.16
O       9.25      17.42      -0.00
O      10.81      15.31       1.85
O      10.42      20.01       1.62
O       6.55      17.27       1.78
O      11.97      17.27       1.76
O       7.64      15.26       1.87
O       8.13      20.00       1.63
O       6.55      18.96      -0.90
O       9.22      15.43      -2.57
O       7.64      18.17      -2.74
O       9.22      14.21      -0.64
O      11.97      18.96      -0.91
O      10.82      18.17      -2.71
