10

Al       4.27      12.01       6.95
O       3.23      10.99       8.20
O       3.21      11.39       5.46
O       3.20      13.56       7.15
O       5.34      10.40       7.12
O       5.35      12.90       8.25
O       5.33      12.62       5.48
C       2.27      10.18       7.96
C       2.27      12.01       4.88
C       2.29      13.75       8.03
