16

C      18.79      -0.57       3.31
Zn      17.79       0.00       6.20
C      19.00      -2.84       6.38
N      17.79       0.00       4.00
C      20.58      -1.30       6.49
C      16.59       2.84       6.39
C      20.62       1.21       6.49
C      15.00       1.30       6.49
C      19.09       2.81       6.38
C      14.96      -1.21       6.48
C      16.49      -2.80       6.38
N      16.37       1.49       6.44
N      16.32      -1.44       6.44
N      19.22      -1.48       6.43
N      19.27       1.44       6.44
C      16.79       0.57       3.31
