20

Zn       5.44       8.31       7.70
Zn       5.71       5.48       7.73
C       5.42       6.95      10.34
C       5.58       6.96       5.09
C       5.14       2.64       8.32
C       5.51      11.08       6.61
C       7.08       2.93       7.08
C       4.63      10.96       8.75
C       3.01       6.50       7.66
C       8.16       7.14       7.75
N       6.02       3.46       7.71
N       5.15      10.34       7.68
O       5.53       8.09       9.78
O       5.87       5.88       5.69
O       5.40       5.82       9.77
O       5.33       8.09       5.63
O       3.50       7.66       7.82
O       7.67       5.98       7.93
O       3.68       5.42       7.53
O       7.48       8.21       7.59
