35

Zn       7.48      11.96       8.71
Zn      10.26      15.41       9.27
Zn       9.59      13.01      11.76
Zn       7.71      14.78       7.07
C       9.06      11.18      14.02
N       7.31      11.87      12.81
N      11.52      13.71       9.80
N       9.37      11.26      10.55
N       9.72      14.49       6.74
N      10.70      15.25       7.32
N       8.36      10.71       9.82
N       7.22      13.09       5.98
N      11.47      13.20      11.07
N       8.53      16.48       8.95
N       9.68      15.11      12.07
N       6.30      14.42       8.51
N      10.43      15.87      11.21
N       6.54      13.46       9.46
N       7.87      16.66       7.76
N       8.59      12.17      13.22
N       7.58      12.01       6.75
C       7.97      11.00       5.94
C      12.81      14.08       9.58
C      10.12      10.24      11.00
C      10.19      14.04       5.56
C      11.77      15.25       6.50
C       8.46       9.36       9.82
C       7.38      12.73       4.70
C       8.07      17.40       9.83
C      12.69      13.26      11.62
C      10.21      15.29      13.31
C       5.17      15.05       8.84
C      11.41      16.49      11.90
C       5.53      13.48      10.37
C       6.98      17.66       7.93
