10

Al       3.93      20.88       4.01
C       5.94      21.90       2.24
C       5.94      18.84       4.02
C       5.95      21.91       5.79
O       4.98      21.11       5.60
O       4.98      22.14       3.03
O       4.98      19.41       3.42
O       2.86      22.15       4.97
O       2.87      19.42       4.63
O       2.86      21.08       2.44
