16

Zn       9.06      10.12       5.94
Si       5.18      10.12       5.94
C       7.99      12.43       4.27
C      10.14      12.43       7.60
C      10.14       7.82       7.61
C       7.99       7.82       4.28
N       9.09      11.67       4.44
N       9.04      11.67       7.44
N       9.04       8.58       7.45
N       9.09       8.58       4.44
C       7.97      11.87       8.25
F       6.94      10.12       5.89
F      11.19      10.13       5.99
C      10.16      11.87       3.63
C       7.97       8.38       8.25
C      10.16       8.38       3.63
