28

Co       1.85       5.43       5.67
Co      -2.06       5.41       5.65
O      -1.47       5.18       7.65
H       0.11       5.37       7.70
H      -3.79       3.38       5.71
O       2.43       3.43       5.90
H       1.40       6.20       8.17
H      -2.50       2.91       4.88
H       3.58       5.50       3.60
H      -0.33       7.48       5.58
O       1.12       5.46       7.61
O      -2.78       3.47       5.62
H       2.18       4.90       3.03
O       2.57       5.46       3.72
O      -1.33       7.36       5.62
H      -1.72       8.05       6.18
O      -0.10       4.78       5.04
O       3.80       6.04       6.30
H      -0.25       4.91       4.02
H       3.66       7.06       6.17
H       0.04       3.77       5.23
H       3.95       5.85       7.31
C       2.05       8.47       5.43
C      -1.85       5.65       2.61
C      -2.22       5.17       8.71
C       1.69       2.37       5.91
O       1.28       7.44       5.46
O      -2.63       5.62       3.64
