23

Zn      -3.13      13.06       0.80
Zn      -3.83      11.60      -1.90
Zn      -1.94      10.15       0.27
Zn      -5.02      10.45       0.83
O      -3.48      11.31      -0.00
O      -3.03      14.49      -0.54
O      -2.24      10.94      -2.89
O      -0.43      11.23       0.90
O      -3.93      13.50      -2.37
O      -1.54      12.93       1.93
O      -1.51       9.32      -1.48
O      -2.35       8.62       1.44
O      -5.45      11.46       2.48
O      -4.61       8.64       1.47
O      -4.72      13.53       1.89
O      -5.42      10.58      -2.41
O      -6.53      10.51      -0.42
C      -3.48      14.55      -1.76
C      -1.57       9.90      -2.60
C      -0.45      12.24       1.72
C      -3.48       8.07       1.76
C      -5.39      12.72       2.60
C      -6.51      10.38      -1.72
