18

Al       5.12      16.15      20.74
O       3.47      15.30      20.73
Al       1.80      16.09      20.73
O       6.79      16.93      20.74
C       3.45      17.66      22.61
C       6.76      14.58      18.85
C       3.45      17.78      18.96
C       6.77      14.45      22.51
O       2.33      17.35      19.37
H       6.81      17.81      20.33
O       5.64      14.89      22.10
H       3.50      14.42      21.14
O       4.59      17.36      22.13
O       1.27      14.87      19.33
O       4.59      17.43      19.42
O       1.27      14.80      22.05
O       5.64      14.95      19.32
O       2.32      17.29      22.15
