14

O       4.04       3.26       6.51
O       2.54       4.00       4.99
Zn       2.06       4.94       6.64
Zn       3.67       3.95       8.56
O       5.06       5.25       8.43
O       2.30       5.24       9.45
O       3.72       6.12       6.80
O       2.97       2.16       8.87
O       0.85       5.88       7.82
O       1.34       3.09       7.60
C       3.60       3.34       5.32
C       4.77       6.14       7.52
C       1.24       5.79       9.04
C       1.89       2.10       8.17
