23

Zn       7.67       9.05      15.62
O       7.64       7.71      17.06
Zn       9.15      11.90      15.75
O       7.56      10.89      16.31
Zn       7.47      10.83      18.28
O       9.31       8.76      14.58
Zn       5.95      11.79      15.62
O       8.98      11.78      19.09
O       7.49       9.00      18.95
O      10.36      10.79      14.68
O       6.15       8.66      14.43
O       5.83      11.67      18.95
O      10.17      12.54      17.31
O       8.69      13.47      14.68
O       4.94      10.59      14.44
O       6.41      13.39      14.59
C       7.56       7.89      18.32
O       4.74      12.36      17.06
C      10.26       9.57      14.32
C       9.96      12.39      18.56
C       5.17       9.39      14.08
C       4.87      12.22      18.33
C       7.54      13.90      14.32
