14

Zn       6.48      12.36      35.14
Zn       3.86      12.67      35.18
O       6.71      10.39      35.44
C       4.87      12.66      37.75
C       5.48       9.95      35.36
O       5.94      12.89      37.07
C       5.45      15.07      35.08
O       6.43      14.30      34.82
O       6.06      11.92      33.19
C       5.03      12.38      32.57
O       4.51      10.77      35.31
O       3.71      12.58      37.21
O       4.22      14.66      35.18
O       3.93      12.67      33.16
