18

Al       5.87      12.29       9.85
Al       9.21      12.27       9.86
O       7.55      13.08       9.75
O       8.70      11.32      11.48
O       8.67      10.79       8.80
H       4.21      10.66      10.51
H       7.55      14.02       9.99
C       4.18      13.52       7.79
C       4.21      14.20      11.35
C       7.55      11.02      11.94
C       7.54      10.39       8.37
O       9.76      13.79      10.95
O       5.32      13.29       8.31
O       6.40      10.87       8.68
O       5.35      13.76      11.01
O       6.41      11.25      11.41
O       9.73      13.20       8.26
O       4.20      11.50      10.03
