42

Gd       2.24      15.54      23.66
N      -0.37      12.08      25.26
Gd       5.29      17.64      24.72
N       7.91      21.10      23.11
O       7.35      16.98      25.64
O       0.19      16.20      22.73
O       2.97      17.45      24.90
O       4.56      15.73      23.48
O       3.09      14.65      25.70
O       4.45      18.53      22.67
O       4.92      15.86      26.25
O       2.61      17.33      22.12
O       4.63      18.96      26.36
O       2.91      14.23      22.02
O       0.70      13.80      24.19
H       1.40      12.93      25.91
H       6.14      20.25      22.47
O       6.83      19.38      24.19
H       0.50      11.32      27.01
H       7.04      21.86      21.36
H      -0.38      10.12      26.01
H       7.91      23.06      22.36
H      -1.28      11.31      27.00
H       8.82      21.87      21.38
H      -1.32      12.77      23.53
H       8.85      20.41      24.84
H      -2.42      12.26      24.84
H       9.95      20.92      23.53
H      -1.54      11.03      23.88
H       9.08      22.15      24.50
C       2.09      17.58      25.83
C      -0.94      15.60      22.55
C       3.64      19.01      27.21
C       3.90      14.17      21.16
C       4.08      14.90      26.46
C       3.46      18.28      21.92
C       0.62      12.97      25.12
C       6.91      20.21      23.25
C      -0.39      11.16      26.38
C       7.92      22.03      21.99
C      -1.48      12.03      24.32
C       9.01      21.15      24.05
