23

Cu       2.50       1.01       1.30
Cu      -2.50      -1.01      -1.31
Cu      -0.01      -0.00      -0.00
O       1.30      -1.58       0.45
O       2.48      -0.74       2.20
O       0.57       1.08       1.47
O       2.52       2.53       0.08
H       0.36       0.57       2.28
O       4.45       1.03       1.61
H       4.89       0.12       1.63
H       5.01       1.54       0.97
O      -1.29       1.58      -0.45
O      -2.47       0.74      -2.20
O      -0.57      -1.10      -1.49
O      -2.52      -2.53      -0.08
O      -4.45      -1.03      -1.61
H      -0.36      -0.58      -2.29
H      -4.88      -0.12      -1.63
H      -5.00      -1.53      -0.97
C       1.99      -1.71       1.51
C       1.92       2.36      -1.05
C      -1.99       1.71      -1.52
C      -1.92      -2.36       1.05
