23

Zn       1.49       0.81       1.29
Zn      -1.62       0.95       1.99
Zn      -0.23      -1.90       1.68
Zn      -0.63      -0.10      -0.91
C       0.35       2.75       3.15
C       2.72      -1.68       2.15
C       1.26       2.08      -1.37
C      -1.82      -1.22       4.02
C      -3.35       0.99      -0.36
C      -0.77      -3.00      -1.00
O      -0.25      -0.06       1.01
O      -0.86       2.60       2.76
O       1.34       2.01       2.84
O       1.64      -2.34       2.16
O       2.89      -0.49       1.72
O       0.46       1.22      -1.87
O       1.81       2.04      -0.22
O      -1.25      -2.14       3.35
O      -2.10      -0.04       3.63
O      -2.50       0.49      -1.16
O      -3.19       1.29       0.87
O      -0.78      -3.15       0.26
O      -0.56      -1.93      -1.65
