15

Cu       4.05       1.39      13.71
Cu       4.24       1.89      10.64
Cu       5.80       3.81      12.72
N       3.25       0.46      11.24
N       6.02       3.24      14.47
N       5.66       4.29      10.95
C       2.08      -0.55      12.81
C       2.51      -0.50      10.63
N       2.98       0.43      12.58
N       5.25       2.18      14.88
C       5.73       1.74      16.06
C       5.17       3.97       8.82
N       5.10       3.41      10.05
C       6.09       5.38      10.27
C       6.98       3.44      15.39
