20

Zn      10.58       9.56       9.85
Zn       7.75       9.56       9.85
C       9.17       9.56       7.22
C      13.31      10.36      10.69
C       5.01       8.75       9.02
C      13.32       8.75       9.02
C       5.02      10.36      10.69
C       9.16       9.56      12.48
C       9.16       6.95       9.92
C       9.17      12.17       9.96
N      12.63       9.56       9.86
N       5.70       9.56       9.85
O      10.30       9.55       7.80
O       8.03       9.56      11.91
O      10.30       9.56      11.91
O       8.03       9.55       7.80
O      10.30       7.52       9.86
O       8.03      11.59       9.90
O      10.30      11.59       9.90
O       8.03       7.52       9.86
