14

Zn       5.41      17.79      17.44
Zn       2.72      17.79      17.44
C       3.50      15.28      17.43
C       4.65      17.79      20.02
C       3.51      20.30      17.45
C       4.65      17.79      14.86
O       4.62      15.87      17.43
O       2.36      15.88      17.44
O       3.52      17.78      19.40
O       5.78      17.79      19.36
O       2.37      19.71      17.45
O       4.63      19.71      17.45
O       5.78      17.79      15.53
O       3.52      17.81      15.49
