35

Mg       7.57      19.55       9.88
H       2.20      22.00       8.82
C       3.29      17.16       9.25
Mg      11.06      18.97      10.41
Mg       4.07      20.13       9.35
O       8.07      17.60       9.69
O       7.06      21.51      10.07
O      12.33      17.72      11.44
O       2.81      21.38       8.32
O      10.28      17.36       9.31
O       4.85      21.75      10.45
O       7.77      19.42      11.88
C       2.86      20.34      12.29
O       7.36      19.69       7.89
C      12.27      18.77       7.47
O       9.98      19.06      12.15
O       5.15      20.05       7.61
O      12.09      20.73      10.84
O       3.04      18.38       8.92
C       9.08      16.89       9.46
C       6.05      22.22      10.30
O       2.67      20.14      11.07
O      12.46      18.96       8.69
O       9.59      20.23       9.44
O       5.54      18.88      10.32
H       2.33      20.95       7.56
H       9.47      20.26       8.47
H       5.66      18.84      11.29
H       9.93      21.19       9.75
H       5.20      17.92      10.01
C       8.80      19.21      12.59
H      12.80      18.16      12.20
C       6.33      19.90       7.17
H      12.94      17.11      10.94
C      11.84      21.94      10.51
