20

Zn       8.09       6.65       9.20
Zn       5.30       7.13       9.53
C       6.33       4.32       9.76
C       7.16       7.14      11.93
C      12.20       6.41      10.11
C      12.22       7.88       8.39
C      10.88       7.49       8.07
C       7.12       9.45       9.36
C      10.88       6.08       9.83
C       6.24       6.33       6.88
N      12.91       7.31       9.42
N      10.18       6.62       8.84
O       7.54       4.71       9.66
O       5.29       5.05       9.81
O       8.21       6.91      11.25
O       5.98       7.27      11.46
O       8.14       8.72       9.14
O       5.91       9.07       9.34
O       7.43       6.30       7.32
O       5.22       6.70       7.53
