19

Zn       5.78      19.02       0.00
Zn       8.84      18.11       1.22
Zn       8.72      19.93      -1.22
H       3.99      20.46       1.02
H       7.57      17.58      -1.02
C       4.66      16.16       0.38
C       6.74      18.83       3.00
C       6.90      21.89      -0.38
C       4.82      19.22      -3.00
O       5.17      17.04      -0.38
O       3.65      16.35       1.16
O       5.91      18.62       2.07
O       8.02      18.65       2.89
O       6.39      21.01       0.38
O       7.91      21.69      -1.16
O       5.65      19.43      -2.07
O       3.54      19.39      -2.89
O       7.70      18.36      -0.45
O       3.86      19.69       0.45
