20

Zn       5.83      10.01       8.89
Zn       5.83       7.05       8.89
C       5.64       8.53       6.29
C       5.81       8.53      11.50
C       6.62      12.92       8.08
C       4.99       4.14       9.70
C       4.99      12.92       9.70
C       6.62       4.14       8.08
C       8.40       8.53       8.94
C       3.24       8.53       8.85
N       5.81      12.21       8.89
N       5.81       4.85       8.89
O       5.74       9.67       6.86
O       5.85       7.39      10.93
O       5.85       9.67      10.93
O       5.74       7.39       6.86
O       7.83       9.67       8.94
O       3.81       7.39       8.85
O       3.81       9.67       8.85
O       7.83       7.39       8.94
