20

Zn       3.31       5.53       7.26
Zn       0.49       5.62       7.16
C       1.72       3.00       7.10
C       1.96       5.91       9.77
C       2.02       8.13       7.06
C       6.07       4.57       8.14
C       7.51       4.65       8.20
C       7.45       6.46       6.74
C       1.85       5.66       4.62
C       6.05       6.40       6.71
N       8.16       5.59       7.45
N       5.38       5.46       7.36
O       2.81       3.54       7.48
O       0.64       3.61       6.82
O       3.12       6.02       9.26
O       0.96       5.37       9.19
O       3.11       7.52       6.81
O       0.93       7.58       7.43
O       2.83       5.19       5.28
O       0.72       5.98       5.11
