10

Al       3.95       6.15      10.66
O       2.89       7.15      11.90
O       2.89       6.73       9.17
O       2.89       4.58      10.90
O       5.01       7.75      10.79
O       5.01       5.25      11.97
O       5.01       5.47       9.21
C       1.97       6.06       8.61
C       1.97       4.43      11.77
C       1.97       7.98      11.60
