20

Zn       5.18       5.90       8.80
Zn       5.18       8.69       8.96
C       5.17       7.45       6.25
C       2.57       7.24       8.86
C       5.20       7.22      11.50
C       7.80       7.26       8.88
C       4.35      11.45       8.21
C       6.02      11.40       9.81
C       6.03       3.14       9.49
C       4.35       3.20       7.90
N       5.19      10.74       8.99
N       5.19       3.85       8.73
O       5.17       6.28       6.78
O       5.16       8.55       6.90
O       3.15       8.36       9.01
O       3.12       6.11       8.74
O       5.21       8.39      11.00
O       5.20       6.13      10.84
O       7.25       6.12       8.76
O       7.22       8.38       9.01
