23

Zn      19.97       1.58      22.93
Zn      18.49       4.43      22.69
Zn      18.20       2.77      25.38
Zn      16.78       1.72      22.71
C      21.08       3.83      21.38
C      18.39       5.72      25.33
C      20.66       1.17      25.79
C      15.66       1.28      25.39
C      18.39      -0.39      21.41
C      15.92       4.12      21.26
O      18.37       2.62      23.43
O      21.22       2.64      21.84
O      18.48       5.82      24.06
O      19.63       1.75      26.27
O      20.11       4.62      21.61
O      20.92       1.00      24.55
O      18.32       4.63      26.01
O      16.46       2.09      25.98
O      17.27       0.22      21.54
O      15.73       0.92      24.17
O      19.52      -0.03      21.88
O      16.97       4.81      21.51
O      15.65       2.95      21.70
