118

Ho       6.38       3.69      12.32
Ho      12.77       7.38      12.32
Ho      12.77       7.38      20.53
Ho       6.38       3.69      20.53
Cu       9.58       5.53      16.42
Cu       6.38       0.00      16.42
Cu       3.19       5.53      16.42
Cu       3.19       5.53       8.21
Cu       6.38       0.00       8.21
Cu       9.58       5.53       8.21
C       9.02       3.80      14.21
C       9.39       2.56      13.41
C       5.16       1.35      14.21
C       3.90       1.65      13.41
C       4.97       5.92      14.21
C       5.86       6.86      13.41
C      10.13       7.27      14.21
C       9.76       8.50      13.41
C       7.61      -1.35      14.21
C       8.86      -1.65      13.41
C       1.42       5.15      14.21
C       0.53       4.21      13.41
C       2.64       7.27      10.42
C       3.00       8.51      11.22
C       5.16      -1.35      10.42
C       3.91      -1.65      11.22
C      11.35       5.15      10.42
C      12.24       4.21      11.22
C       3.75       3.80      10.42
C       3.38       2.56      11.22
C       7.61       1.35      10.42
C       8.86       1.65      11.22
C       7.80       5.92      10.42
C       6.91       6.86      11.22
C      10.13       7.27      18.63
C       9.76       8.50      19.43
C       7.61      -1.35      18.63
C       8.86      -1.65      19.44
C       1.42       5.15      18.63
C       0.53       4.21      19.43
C       9.02       3.80      18.63
C       9.39       2.56      19.43
C       5.16       1.35      18.63
C       3.91       1.65      19.43
C       4.97       5.92      18.63
C       5.86       6.86      19.44
C       3.75       3.80       6.00
C       3.38       2.56       5.20
C       7.61       1.35       6.00
C       8.86       1.65       5.20
C       7.80       5.92       6.00
C       6.91       6.86       5.20
C       2.64       7.26       6.00
C       3.00       8.50       5.20
C       5.16      -1.35       6.00
C       3.91      -1.65       5.20
C      11.35       5.15       6.00
C      12.24       4.21       5.20
O       7.94       4.39      13.95
O       9.87       4.11      15.11
O       6.21       1.99      13.95
O       5.00       0.45      15.11
O       5.00       4.69      13.95
O       4.28       6.50      15.11
O      11.21       6.68      13.95
O       9.28       6.96      15.11
O       6.56      -1.99      13.95
O       7.76      -0.45      15.11
O       1.38       6.38      13.95
O       2.11       4.56      15.11
O       1.56       6.68      10.68
O       3.49       6.96       9.52
O       6.21      -1.99      10.68
O       5.00      -0.45       9.52
O      11.38       6.38      10.68
O      10.66       4.56       9.53
O       4.83       4.39      10.68
O       2.89       4.11       9.52
O       6.56       1.99      10.68
O       7.76       0.46       9.52
O       7.77       4.69      10.68
O       8.49       6.50       9.52
O      11.21       6.68      18.89
O       9.28       6.96      17.73
O       6.56      -1.99      18.89
O       7.76      -0.45      17.73
O       1.38       6.38      18.89
O       2.11       4.56      17.74
O       7.94       4.39      18.89
O       9.87       4.11      17.73
O       6.21       1.99      18.89
O       5.00       0.46      17.73
O       5.00       4.69      18.89
O       4.28       6.50      17.74
O       4.83       4.39       5.74
O       2.90       4.11       6.90
O       6.56       1.99       5.74
O       7.77       0.45       6.90
O       7.77       4.69       5.74
O       8.49       6.50       6.90
O       1.56       6.68       5.74
O       3.49       6.96       6.90
O       6.21      -1.99       5.74
O       5.00      -0.45       6.90
O      11.38       6.38       5.74
O      10.66       4.56       6.90
O       8.48       2.48      12.32
O       4.29       2.48      12.32
O       6.38       6.11      12.32
O      10.67       8.59      12.32
O       8.48      -2.48      12.32
O       0.00       4.95      12.32
O      10.67       8.59      20.53
O       8.48      -2.48      20.53
O       0.00       4.95      20.53
O       8.48       2.48      20.53
O       4.29       2.48      20.53
O       6.39       6.11      20.53
