18

Zn       3.50       5.64       8.02
Zn       3.27       8.44       8.12
C       3.40       6.94      10.67
C       0.83       6.60       8.07
C       4.18       2.53       7.97
C       2.59      11.55       8.17
C       5.94       7.48       8.07
N       2.78      10.40       8.19
N       3.99       3.68       7.94
O       3.44       5.82      10.07
O       3.32       8.26       6.07
C       3.37       7.14       5.47
O       3.36       8.10      10.15
O       3.41       5.98       5.99
O       5.44       6.32       8.03
O       1.33       7.76       8.11
O       5.32       8.59       8.11
O       1.44       5.49       8.03
