20

Zn       6.91       8.84      28.08
Zn       9.69       8.76      28.03
O       7.16      10.87      27.94
O       9.42      10.80      28.15
O       9.47       8.90      25.99
O       7.19       8.73      26.04
O       9.36       6.73      27.90
O       7.12       6.80      28.22
O       7.21       8.95      30.12
O       9.45       8.61      30.07
C       8.31      11.41      28.05
C       8.32       8.81      25.44
C       8.22       6.19      28.06
C       8.34       8.78      30.67
C      12.47       9.56      27.31
C      12.37       7.93      28.97
C       4.21       9.71      27.24
C       4.14       8.02      28.83
N      11.74       8.75      28.10
N       4.85       8.85      28.05
