118

Sm       0.00       7.73       9.76
Sm       0.00      15.46      12.14
Sm      -6.70       3.87      19.44
Sm       0.00       7.73       2.46
Cu       0.00      11.60       7.30
Cu       3.35       5.80       7.30
Cu      -3.35       5.80       7.30
Cu      -3.35       5.80      14.60
Cu       3.35       5.80      14.60
Cu      -0.00      11.60      14.60
H      -2.12      12.04       6.10
H       4.79       7.41       6.10
H      -2.67       3.74       6.10
H      -1.90       4.19      15.80
H       4.02       7.86      15.80
H      -2.12      11.15      15.80
H       2.12      11.15       8.50
H       1.90       4.19       8.50
H      -4.02       7.86       8.50
H      -4.79       7.41      13.40
H       2.67       3.74      13.40
H       2.12      12.04      13.40
C      -1.94       9.48       8.28
C       2.48       8.53       8.28
C      -0.55       5.18       8.28
C      -4.22       3.06      13.62
C       6.15       6.42      13.62
C      -1.94      13.72      13.62
C       1.94      13.72       6.32
C       4.22       3.06       6.32
C      -6.15       6.42       6.32
C      -2.48       8.53      15.58
C       0.55       5.18      15.58
C       1.94       9.48      15.58
C      -2.66      10.50       7.39
C       3.73       8.65       7.39
C      -1.07       4.05       7.39
C      -2.97       2.95      14.50
C       5.63       7.55      14.50
C      -2.66      12.70      14.50
C       2.66      12.70       7.21
C       2.97       2.95       7.21
C      -5.63       7.55       7.21
C      -3.73       8.65      14.69
C       1.07       4.05      14.69
C       2.66      10.50      14.69
C      -1.47      10.27       5.24
C       2.93       7.73       5.24
C      -1.47       5.19       5.24
C      -3.76       3.86      16.66
C       5.23       6.41      16.66
C      -1.47      12.93      16.66
C       1.47      12.93       9.36
C       3.76       3.86       9.36
C      -5.23       6.41       9.36
C      -2.93       7.73      12.54
C       1.47       5.19      12.54
C       1.47      10.27      12.54
C       0.03      10.14       4.97
C       2.08       6.50       4.97
C      -2.10       6.55       4.97
C      -4.62       5.09      16.93
C       4.60       5.05      16.93
C       0.03      13.05      16.93
C      -0.03      13.05       9.63
C       4.62       5.09       9.63
C      -4.60       5.05       9.63
C      -2.08       6.50      12.26
C       2.10       6.55      12.26
C      -0.03      10.14      12.26
N      -1.76      11.12       6.41
N       3.81       7.56       6.41
N      -2.05       4.51       6.41
N      -2.88       4.04      15.49
N       4.64       7.09      15.49
N      -1.76      12.08      15.49
N       1.76      12.08       8.19
N       2.88       4.04       8.19
N      -4.64       7.09       8.19
N      -3.81       7.56      13.71
N       2.05       4.51      13.71
N       1.76      11.12      13.71
O      -0.66       9.41       8.16
O       1.78       7.47       8.16
O      -1.12       6.32       8.16
O      -4.92       4.13      13.73
O       5.58       5.28      13.73
O      -0.66      13.79      13.73
O       0.66      13.79       6.43
O       4.92       4.13       6.43
O      -5.58       5.28       6.43
O      -1.78       7.47      15.46
O       1.12       6.32      15.46
O       0.66       9.41      15.46
O       0.85      10.70       5.77
O       2.14       5.51       5.77
O      -2.99       6.99       5.77
O      -4.56       6.09      16.13
O       3.70       4.61      16.13
O       0.85      12.50      16.13
O      -0.85      12.50       8.83
O       4.56       6.09       8.83
O      -3.70       4.61       8.83
O      -2.14       5.51      13.07
O       2.99       6.99      13.07
O      -0.85      10.70      13.07
O       0.40       9.48       3.96
O       1.31       6.51       3.96
O      -1.71       7.20       3.96
O      -5.38       5.08      17.94
O       4.99       4.40      17.94
O       0.40      13.72      17.94
O      -0.40      13.72      10.64
O       5.38       5.08      10.64
O      -4.98       4.40      10.64
O      -1.31       6.51      11.26
O       1.71       7.20      11.26
O      -0.40       9.48      11.26
