13

Mo      11.47       5.77      10.17
O       9.92       5.99      11.31
C      11.55       8.20      12.29
O      13.00       6.59       9.15
N      10.14       7.65       8.96
O      12.37       4.66      11.11
C      13.60       7.68       9.62
O      10.85       4.90       8.81
N      12.09       7.66      11.22
C       9.60       6.65      12.44
N      13.18       8.31      10.68
C       9.75       8.82       9.51
C       9.59       7.31       7.78
