35

Zn       7.55      12.06       8.83
Zn       9.86      16.28       8.55
Zn       9.88      13.19      10.72
Zn       7.37      15.08       6.79
C       6.29      17.95       8.06
C       8.50      11.66      12.61
N       7.14      11.60      10.87
N      11.36      15.37       9.28
N      10.21      11.30      10.06
N       9.06      15.55       5.86
N      10.13      15.96       6.59
N       9.23      10.90       9.20
N       7.22      13.14       5.96
N      11.14      14.01       9.24
N       8.12      17.02       8.78
N      10.32      14.72      11.92
N       6.06      14.62       8.20
N       9.77      15.95      11.66
N       6.18      13.56       9.03
N       7.30      17.15       7.68
N       8.09      12.36      11.52
N       7.65      12.13       6.79
C       6.97      10.46      11.56
C       8.19      11.15       6.03
C      12.69      15.61       9.31
C      10.76      10.21      10.62
C       9.47      15.29       4.61
C      11.22      15.93       5.80
C       9.15       9.55       9.26
C       7.51      12.77       4.70
C       7.62      17.74       9.81
C      12.36      13.42       9.22
C      11.48      14.88      12.60
C       4.77      15.01       8.17
C       4.95      13.29       9.54
