23

Zn      20.15       1.68      22.98
Zn      18.54       4.44      22.72
Zn      18.42       2.78      25.47
Zn      16.94       1.67      22.82
C      21.09       3.99      21.36
C      18.49       5.73      25.38
C      21.02       1.30      25.74
C      15.91       1.27      25.60
C      18.60      -0.43      21.58
C      15.96       3.99      21.32
O      18.52       2.64      23.50
O      21.26       2.80      21.81
O      18.54       5.82      24.11
O      20.01       1.92      26.22
O      20.10       4.76      21.60
O      21.25       1.10      24.49
O      18.42       4.65      26.07
O      16.80       1.95      26.22
O      17.44       0.06      21.81
O      15.88       1.05      24.35
O      19.72       0.05      21.95
O      16.94       4.75      21.63
O      15.80       2.78      21.68
