23

Zn       7.48       8.99      15.53
Zn       7.34      10.77      18.18
Zn       8.91      11.88      15.57
Zn       5.83      11.80      15.55
O       7.39      10.83      16.21
O       7.48       7.65      16.96
O       9.01      11.55      18.90
O      10.16      10.74      14.64
O       7.28       8.94      18.85
O       9.06       8.74      14.40
O       9.58      12.90      17.18
O       8.51      13.46      14.49
O       5.22      10.72      13.96
O       6.22      13.44      14.54
O       5.82       8.61      14.50
O       5.81      11.77      18.86
C       7.38       7.83      18.24
C       9.73      12.45      18.38
C      10.05       9.54      14.21
C       7.34      13.93      14.19
C       5.08       9.45      13.89
C       4.76      12.17      18.24
O       4.57      12.18      16.97
