10

Al       0.37      20.86      20.11
C       2.37      21.86      21.89
C       2.38      21.90      18.35
C       2.37      18.82      20.10
O       1.43      22.14      19.16
O       1.43      19.41      19.48
O       1.43      21.04      21.69
O      -0.69      21.09      18.54
O      -0.69      22.11      21.10
O      -0.69      19.37      20.70
