18

Al       1.11      12.20       9.93
Al       4.45      12.18       9.94
C       2.80      14.06      11.44
C      -0.59      10.26       8.45
C       2.76      13.47       7.87
C      -0.54      10.96      12.00
O       3.89      13.26       8.42
O       1.67      13.68      10.99
O       0.60      11.31      11.56
O       1.61      13.14       8.30
O       0.55      10.66       8.88
O       3.94      13.57      11.15
O       2.77      11.38      10.02
O      -1.73      10.74       8.75
O      -1.67      11.15      11.45
O      -0.57      12.98       9.75
H       2.76      10.48       9.68
H      -0.58      13.75       9.17
