18

Al       4.99       6.29       7.32
O       5.59       7.61       8.56
O       4.41       4.95       6.03
Al       1.69       6.34       7.30
O       5.49       7.46       5.83
H       3.36       8.03       6.87
O       2.28       4.98       8.47
H       6.66       4.65       6.76
O       3.35       7.15       7.28
C       3.37       4.69       9.10
O       7.73       7.71       6.09
C       3.31       4.75       5.41
O       7.83       7.39       8.81
C       6.62       7.97       5.52
O       6.67       5.47       7.26
C       6.70       7.88       9.13
O       2.18       5.27       5.76
O       4.50       5.19       8.80
