18

O       1.86      10.25      18.49
O      -1.48      11.98      21.77
Al       2.39      11.12      20.13
Al      -0.95      11.11      20.13
O       0.72      11.89      20.32
O       4.06      10.34      19.94
H       4.06       9.41      19.66
H       0.72      12.83      20.55
C       4.07      12.23      22.27
C       0.72      10.00      17.99
C       4.06      13.09      18.74
C       0.72       9.14      21.52
O      -1.48      12.65      19.12
O       1.86       9.58      21.14
O       2.92      12.00      21.77
O      -0.42      10.23      18.49
O       2.92      12.65      19.11
O      -0.42       9.58      21.15
