10

Al      -0.28       4.02       6.94
O       0.77       3.04       5.66
O       0.78       3.39       8.41
O       0.78       5.60       6.77
O      -1.33       2.43       6.76
O      -1.34       4.96       5.66
O      -1.33       4.64       8.43
C       1.71       4.02       9.01
C       1.72       2.23       5.92
C       1.72       5.80       5.92
