25

Zn      -1.12       0.82      14.86
Zn      -1.15       1.65      17.98
Zn      -1.17       2.49      21.11
C       0.84      -0.33      16.46
C      -0.87       3.54      15.33
C      -3.20      -0.26      16.58
C       0.92       3.54      19.37
C      -3.13       3.67      19.52
C      -1.47      -0.23      20.63
C      -2.06      -0.48      12.42
C      -0.78       1.41      11.95
C      -1.35       1.84      24.02
C      -0.18       3.79      23.52
N      -1.36       0.60      12.85
N      -0.85       2.69      23.11
O       0.57      -0.12      15.22
O       0.19       0.11      17.44
O      -1.20       2.43      15.96
O      -2.65      -0.29      15.41
O      -2.83       0.46      17.55
O       0.53       2.85      18.39
O       0.39       3.56      20.55
O      -2.50       3.19      18.53
O      -2.83       3.48      20.76
O      -1.13       0.88      20.00
