23

Zn       7.56       9.03      15.57
Zn       7.43      10.83      18.26
Zn       9.07      11.87      15.71
Zn       5.89      11.78      15.62
O       7.49      10.86      16.30
O       7.55       7.70      17.02
O       8.96      11.77      19.07
O      10.28      10.76      14.64
O       7.45       8.98      18.92
O       9.22       8.73      14.55
O      10.07      12.54      17.25
O       8.61      13.44      14.62
C       7.50       7.87      18.29
C       9.91      12.40      18.50
O       6.05       8.64      14.37
C      10.18       9.54      14.28
O       5.79      11.67      18.94
C       5.07       9.40      14.04
C       4.81      12.21      18.33
C       7.46      13.89      14.29
O       4.88      10.59      14.44
O       6.33      13.39      14.59
O       4.68      12.35      17.06
