10

Al       3.86       8.59       9.92
O       2.80       9.48      11.26
C       1.90       8.62       7.86
C       1.90       6.79      10.93
O       2.80       9.31       8.48
O       2.80       6.99      10.03
O       4.90      10.19      10.13
O       4.90       7.62      11.20
O       4.90       7.97       8.44
C       1.90      10.36      10.98
