23

O      12.69      10.50       8.18
Zn      14.25       6.42       6.66
Zn      14.28       6.48       9.78
O      14.39       4.50       7.10
Zn      12.45       8.57       8.22
O      14.96      10.72       8.20
Zn      15.69       8.89       8.23
O      14.56       4.58       9.37
O      12.69       6.60      10.93
O      12.66       6.60       5.51
O      15.82       6.90       5.62
C      16.70       7.83       5.69
C      16.71       7.87      10.78
C      13.77      11.18       8.11
C      11.62       7.26      10.75
C      14.59       3.97       8.25
C      11.61       7.28       5.69
O      15.82       6.96      10.86
O      11.36       8.10       6.63
O      11.36       8.06       9.80
O      16.83       8.73       9.84
O      16.81       8.70       6.62
O      14.16       7.62       8.21
