15

N       7.73      17.89       3.32
N       6.71      17.52       2.47
N       5.02      14.34       3.34
N       5.56      13.62       4.38
N       8.12      14.91       6.70
N       8.64      16.15       6.43
Cu       5.82      15.95       2.89
Cu       8.14      16.98       4.87
Cu       6.87      14.28       5.49
C       6.70      18.38       1.43
C       8.34      18.97       2.80
C       4.87      12.48       4.51
C       4.00      13.62       2.83
C       9.47      16.48       7.45
C       8.61      14.48       7.88
