18

H       1.83      15.22       4.12
C       1.82      19.30       5.29
In       0.00      16.65       5.55
O      -1.83      17.40       6.30
O       1.83      15.91       4.81
O       4.34      14.56       5.74
In       3.65      16.65       5.55
C      -1.82      16.91       2.90
O      -0.70      14.60       5.68
O       2.97      16.46       7.65
H      -1.83      18.08       6.98
O       0.70      16.52       7.61
C      -1.82      14.01       5.81
O       2.97      18.75       5.36
O       0.70      18.71       5.42
O       4.34      16.84       3.46
O      -0.70      16.78       3.50
C       1.82      16.39       8.20
