20

Zn       3.27       7.20       9.85
Zn       2.56       9.91       9.75
C       2.96       8.49       7.20
C       0.45       7.72       9.89
C       3.04       8.63      12.42
C       5.25       5.17      10.67
C       5.33       9.52       9.94
C       3.92       4.45       8.91
C       2.14      12.74      10.54
C       0.50      11.96       9.10
N       4.25       5.41       9.80
N       1.63      11.75       9.79
O       3.01       7.37       7.80
O       2.81       9.63       7.75
O       1.30       6.79      10.11
O       0.73       8.93       9.63
O       3.48       7.55      11.91
O       2.53       9.61      11.79
O       4.98       8.33       9.67
O       4.55      10.52      10.02
