13

C       7.50      10.15       3.00
C       7.72       5.58      -2.17
Cu       7.59       8.07       0.20
C       6.09       7.66       3.38
N       5.74       8.33      -0.65
P       8.36       6.09      -0.52
C       4.82       7.35      -0.64
C       8.94       7.69       3.19
P       7.46       8.41       2.41
Cl       8.79       9.83      -0.70
C       5.48       9.45      -1.36
C      10.16       5.88      -0.77
C       7.86       4.69       0.53
