27

Zn       0.46       2.59       1.79
O       5.19       1.32       2.46
O       0.32       2.22      -0.30
Zn       7.13       1.79       2.59
Zn       3.80       2.64       2.64
O       7.27      -0.30       2.22
O      -1.56       2.13       2.02
O       9.15       2.02       2.13
C       1.02       5.54       2.34
C       6.57       2.34       5.54
C      -0.97       5.15       1.24
C       8.56       1.24       5.15
C       1.75       2.52       4.73
C       5.84       4.73       2.52
C       2.71       2.52      -0.06
C       4.88      -0.06       2.52
C       1.45       2.22      -0.88
C      -1.45       0.88       2.22
C       9.05       2.22       0.88
C       6.14      -0.88       2.22
N       0.16       4.67       1.78
N       7.43       1.78       4.67
O       0.80       2.58       3.90
O       6.79       3.90       2.58
O       3.01       2.60       4.47
O       4.59       4.47       2.60
O       2.40       2.46       1.32
