16

Cu      -1.91      11.18       1.16
Cu      -3.84      12.54       3.58
O      -2.36      10.17      -0.53
O      -4.59      14.39       3.83
C      -1.20      13.76       4.22
C      -2.79       8.73       2.60
C      -5.78      13.88       3.98
C      -1.63      10.99      -1.21
N      -1.17      12.44       2.45
N      -3.62      10.61       3.43
C      -4.09       9.63       4.22
N      -1.96      12.99       3.43
N      -2.83      10.06       2.45
C       0.09      12.86       2.60
O      -5.85      12.60       3.83
O      -1.11      11.96      -0.53
