15

C      21.10       8.81      22.55
Cu      19.69       4.17      19.56
Cu      22.03       6.35      19.60
Cu      19.54       6.54      21.63
N      22.09       5.00      18.35
N      21.04       4.09      18.30
N      18.36       4.16      20.83
N      18.24       5.23      21.69
N      20.88       7.80      21.70
N      21.99       7.69      20.87
C      21.30       3.19      17.35
C      22.99       4.64      17.42
C      17.24       4.97      22.56
C      17.44       3.24      21.17
C      22.88       8.64      21.22
