20

Zn       5.09       5.32       7.64
Zn       5.10       8.11       7.67
C       5.19       6.70       5.03
C       5.00       6.65      10.28
C       4.05      10.84       7.13
C       6.12      10.85       8.17
C       5.65       2.59       8.67
C       4.56       2.58       6.63
C       2.46       6.75       7.60
C       7.71       6.76       7.81
N       5.09      10.16       7.66
N       5.10       3.27       7.65
O       5.07       5.55       5.58
O       5.06       5.52       9.70
O       5.26       7.81       5.66
O       4.97       7.79       9.71
O       3.04       5.61       7.60
O       7.12       5.63       7.67
O       3.03       7.89       7.60
O       7.15       7.90       7.86
