18

O       4.15       8.43      18.11
Al       1.34       9.82      19.34
O       1.88       8.41      18.14
Al       4.69       9.83      19.31
O       5.23      11.23      20.50
O       0.81      10.88      17.82
O       4.16       8.76      20.82
O       3.01      10.62      19.22
O       7.50      11.21      20.54
O       6.37       9.03      19.42
O       1.88       8.76      20.86
H       3.01      11.54      18.94
H       6.36       8.10      19.71
C       3.03       8.45      21.31
C       6.38      11.19      17.33
C       3.01       8.01      17.72
O       5.23      10.89      17.78
C       6.36      11.63      20.92
