23

Zn       7.28      18.68       1.00
Zn       8.93      20.22      -1.25
Zn       8.83      17.06      -1.25
Zn      10.53      18.61       1.01
O       8.91      18.64      -0.10
O       6.13      20.23       0.63
O       8.78      19.78      -3.16
O       7.24      15.96      -0.93
O       7.44      21.41      -0.79
O       6.20      17.05       0.77
O       8.89      17.50      -3.16
O      10.40      15.94      -0.89
O      10.06      18.57       2.94
O      11.68      17.06       0.61
O       7.79      18.74       2.89
O      10.58      21.25      -1.07
O      11.58      20.26       0.72
C       6.41      21.26      -0.06
C       8.88      18.64      -3.73
C       6.34      16.08      -0.04
C      11.42      16.06      -0.15
C       8.91      18.65       3.49
C      11.47      21.18      -0.15
