14

O      11.07       3.00       7.98
Cu       9.72       4.24       7.35
O       8.34       4.30       4.59
C       8.01       5.26       5.37
C       8.01       2.02       7.24
Cu       9.72       3.01       5.22
C      11.43       2.02       7.24
O      11.10       1.83       6.02
O      11.07       5.41       6.59
O       8.37       3.00       7.98
C      11.43       5.26       5.37
O      11.10       4.30       4.59
O       8.34       1.83       6.02
O       8.37       5.41       6.59
