20

Zn       7.24       7.72       9.79
O       9.28       8.05       9.48
O       5.19      10.24       9.46
O       9.29      10.24      10.12
Zn       7.24      10.53       9.79
C       7.22       9.11       7.22
C       6.56      13.24       8.85
C       6.53       5.00       8.87
C       7.93      13.24      10.73
C       7.26       9.11      12.35
C       4.64       9.14       9.77
C       9.84       9.14       9.80
C       7.95       5.00      10.71
N       7.24       5.68       9.79
N       7.24      12.56       9.79
O       6.88       8.03       7.80
O       6.91      10.19      11.77
O       7.60       8.03      11.78
O       7.57      10.19       7.80
O       5.20       8.05      10.09
