20

Zn       5.13       7.65       9.77
Zn       5.02      10.46       9.80
C       4.97       9.16      12.41
C       5.88      13.16       9.03
C       5.51       4.95      10.95
C       4.13      13.16      10.56
C       5.34       9.12       7.16
C       7.63       9.15       9.95
C       2.52       8.84       9.77
C       4.84       4.92       8.72
N       5.19       5.61       9.82
N       4.98      12.49       9.78
O       5.07       8.03      11.84
O       5.36      10.24       7.75
O       5.16       7.98       7.69
O       4.85      10.30      11.88
O       7.11       7.99       9.84
O       3.06       9.99       9.72
O       3.12       7.72       9.74
O       7.03      10.26      10.01
