23

Zn       7.51       8.97      15.56
Zn       7.32      10.76      18.18
Zn       8.95      11.88      15.64
Zn       5.78      11.72      15.55
O       7.39      10.82      16.22
O       7.51       7.64      17.00
O       8.94      11.56      18.97
O      10.16      10.72      14.64
O       7.26       8.93      18.88
O       9.10       8.70      14.45
O       9.91      12.63      17.21
O       8.49      13.43      14.54
O       4.90      10.57      14.20
O       6.20      13.37      14.58
O       5.91       8.55      14.46
O       5.76      11.73      18.86
C       7.40       7.81      18.27
C       9.82      12.31      18.44
C      10.07       9.52      14.24
C       7.32      13.87      14.24
C       5.01       9.32      14.00
C       4.72      12.13      18.25
O       4.52      12.14      16.98
