10

Al       1.11      29.40      10.23
O       2.16      28.75       8.75
O       2.16      31.00      10.40
O       2.17      28.45      11.52
O       0.04      30.03       8.77
O       0.04      27.81      10.41
O       0.04      30.34      11.50
C       3.11      31.18      11.24
C       3.10      27.62      11.26
C       3.10      29.39       8.18
