15

Cu      12.02       5.31      13.52
N       9.99       3.42      13.78
N      10.49       4.60      14.28
N      13.53       6.07      12.79
N      13.98       5.63      11.56
Cu      10.70       2.73      12.22
N      11.39       2.02      10.67
N      12.55       2.54      10.13
Cu      13.25       4.09      10.85
C       9.76       4.96      15.34
C       8.95       3.04      14.55
C      15.00       6.42      11.17
C      14.29       7.10      13.17
C      11.02       0.96       9.92
C      12.91       1.79       9.08
