23

O      -3.47      16.21       5.82
O      -4.57      20.56      10.23
O      -1.87      17.15       8.37
O      -6.16      20.91       5.74
O      -3.02      17.82      10.22
Zn      -3.00      17.79       6.89
O      -5.75      16.27       5.76
Zn      -4.61      18.74       9.51
O      -1.88      18.95       5.78
O      -6.18      17.82      10.25
O      -4.67      21.86       8.35
Zn      -4.60      20.57       6.89
Zn      -6.21      17.78       6.91
O      -7.35      18.97       5.84
C      -2.03      20.18       5.46
C      -7.14      17.23       9.66
C      -4.61      15.77       5.46
C      -4.62      21.69       9.62
C      -2.05      17.25       9.63
C      -7.16      20.17       5.46
O      -4.60      18.71       7.55
O      -3.00      20.93       5.81
O      -7.30      17.12       8.40
