20

Zn      -0.45       5.61       7.09
Zn      -3.25       5.50       7.21
C      -1.84       8.13       6.85
C      -1.84       5.44       4.59
C      -1.89       2.94       7.43
C       3.70       6.25       6.38
C       3.78       4.55       7.86
C       2.38       4.55       7.98
C       2.31       6.25       6.48
C      -2.06       5.98       9.77
N       4.47       5.41       7.07
N       1.61       5.44       7.28
O      -0.68       7.62       6.84
O      -2.95       7.49       6.87
O      -0.64       5.52       5.02
O      -2.83       5.03       5.29
O      -0.80       3.58       7.15
O      -2.97       3.51       7.78
O      -1.01       6.00       9.06
O      -3.26       5.87       9.29
