16

C      10.72       0.99       4.50
O       6.08       1.90       5.33
Cu       8.08       2.15       5.26
Cu      10.02       4.92       5.26
C       9.13       4.86       8.11
O      10.82       6.02       3.76
C       7.84       3.00       8.11
C      12.02       2.84       4.50
C       6.15       1.14       4.28
C      10.30       7.08       4.28
N       9.97       2.06       4.79
N       9.09       4.34       6.87
N       8.31       3.22       6.87
N      10.75       3.18       4.79
O       7.33       1.02       3.76
O       9.56       6.89       5.33
