18

Al       4.27       5.04      17.87
Al       0.94       5.08      17.89
O       1.43       6.45      19.20
O       3.79       5.95      16.27
O       4.87       3.56      16.86
O       3.70       6.58      18.95
O       4.78       4.12      19.51
O       1.55       6.24      16.51
O       2.60       4.27      18.06
O       7.05       3.97      19.38
O       7.12       3.76      16.61
O       5.94       5.88      17.81
H       2.59       3.36      18.40
H       5.92       6.76      18.22
C       2.66       6.42      15.91
C       2.58       6.93      19.45
C       5.92       3.72      19.90
C       6.00       3.22      16.37
