54

Zr      -1.77      15.50       1.45
Zr       1.77      17.55      -1.44
Zr      -1.77      17.54      -1.44
Zr       1.76      15.49       1.45
Zr      -0.00      14.48      -1.44
Zr      -0.00      18.56       1.45
H      -2.79      14.92      -1.13
H       2.78      14.91      -1.13
H       0.00      19.73      -1.13
H      -0.00      16.52       3.41
O      -2.46      13.43       0.98
O       2.45      16.41      -3.23
O       2.58      19.54      -0.85
O      -2.58      16.72       3.14
O      -3.92      17.25      -0.87
O       1.11      14.17       3.13
O       3.92      15.94       0.98
O      -1.11      18.69      -3.25
O      -1.32      14.47      -3.24
O      -1.47      20.18       0.98
O       1.47      18.66       3.13
O       1.32      12.78      -0.85
O      -2.53      19.57      -0.94
O       2.52      16.64       3.20
O       2.54      13.47       0.94
O      -2.55      16.39      -3.18
O      -3.93      15.90       0.97
O       1.16      18.79      -3.18
O       3.92      17.22      -0.90
O      -1.16      14.27       3.21
O      -1.37      18.64       3.22
O      -1.39      12.81      -0.93
O       1.39      14.40      -3.18
O       1.37      20.25       0.94
O      -0.00      16.52       2.44
O      -0.00      18.82      -0.81
C      -2.23      12.62       0.01
O      -2.00      15.38      -0.80
O       0.00      16.52      -1.79
O      -0.00      14.83       0.61
C      -2.25      17.83       3.67
O      -1.47      17.37       0.60
C      -4.50      16.58       0.05
C      -0.02      13.90       3.66
O       1.99      15.38      -0.80
C       0.02      19.09      -3.68
C      -2.28      20.39       0.01
C      -2.24      15.25      -3.68
O       1.47      17.37       0.61
C       2.23      15.23      -3.67
C       2.25      20.41       0.03
C       4.50      16.59       0.05
C       2.27      17.81       3.65
C       2.23      12.62       0.03
