11

Zn       8.26       6.20       8.67
O       7.97       5.43       6.83
C      10.15       7.59       6.91
O       8.55       5.43      10.51
C       6.98       4.61       6.84
C       6.37       7.59      10.42
C       9.54       4.61      10.49
N       9.85       7.38       8.21
N       6.67       7.38       9.12
C      10.61       8.01       9.14
C       5.90       8.01       8.20
