20

Zn       4.35       5.82       6.71
Zn       7.19       5.56       6.42
C       6.11       8.27       6.72
C       9.88       4.66       5.14
C       1.65       6.98       7.76
C       5.35       3.11       6.61
C       9.95       6.15       6.96
C       1.59       5.35       6.06
C       5.43       5.85       3.99
C       6.19       5.33       9.13
N       2.28       6.14       6.88
N       9.26       5.44       6.09
O       4.95       7.77       6.56
O       4.27       3.76       6.82
O       4.34       5.69       4.64
O       7.27       5.21       8.46
O       7.20       7.61       6.80
O       6.47       3.62       6.27
O       6.59       5.95       4.51
O       5.07       5.74       8.66
