16

Zn       3.89       7.00       7.00
Si       0.00       7.00       7.00
C       5.05       7.00       9.86
C       2.73       7.00       4.14
C       5.05       7.00       4.14
N       3.89       9.17       7.00
N       3.89       4.83       7.00
N       3.89       7.00       9.17
N       3.89       7.00       4.83
F       1.76       7.00       7.00
F       6.01       7.00       7.00
C       2.73       9.86       7.00
C       5.05       9.86       7.00
C       2.73       4.14       7.00
C       5.05       4.14       7.00
C       2.73       7.00       9.86
