19

Ga      -3.41       8.66       5.33
N      -2.85       7.96       7.22
N      -2.49      10.43       5.96
N      -3.75       9.75       3.61
P      -0.78       6.89       4.15
P      -5.27       6.46       3.90
P      -6.10       8.67       7.09
O      -1.57       8.06       4.72
O      -4.13       6.95       4.80
O      -5.09       9.35       6.11
H      -3.73       7.62       7.66
H      -2.18       7.20       7.09
H      -3.21      11.02       6.40
H      -3.33       9.25       2.81
H      -4.76       9.82       3.46
C      -2.25       9.09       7.96
C      -1.53      10.03       7.00
C      -2.00      11.07       4.73
C      -3.17      11.12       3.75
