11

Zn       4.78      14.20      16.19
C       4.16      16.68      15.33
C       2.24      13.68      14.66
C       7.34      13.33      16.75
O       5.19      15.89      15.30
C       4.54      12.89      18.78
C       2.94      14.56      18.55
N       3.44      13.17      15.00
C       3.79      11.97      14.50
N       4.03      13.92      18.07
O       6.31      12.96      16.05
