19

C       5.84       4.11       3.86
Co       6.48       3.92       6.79
C       4.18       3.18       5.23
C       3.89       2.89       6.61
N       5.69       6.03       6.91
N       7.52       4.13       8.50
N       8.10       4.60       6.08
N       8.57       4.86       4.85
N       7.27       1.82       6.68
N       5.44       3.72       5.09
N       4.85       3.25       7.50
N       4.39       2.99       8.74
C       4.63       6.28       7.70
C       6.00       6.95       5.97
C       7.12       3.74       9.72
C       8.77       4.67       8.36
C       9.07       4.96       6.97
C       8.33       1.57       5.89
C       6.95       0.90       7.61
