60

O       3.78       3.21       5.64
La       1.38       3.41       7.07
O       6.91       6.53       6.50
La       5.69       4.20       1.94
La       5.69       4.20       7.07
O       2.09       5.65       6.40
O       4.20       6.30       6.95
La       1.38       3.41       1.94
O      -0.12       1.32       2.06
O       6.40       1.97       2.61
O       0.97       5.11      -0.16
O      -0.76       3.96       0.68
H       3.15       1.61       5.86
H       1.88       0.64       6.03
O      -0.53       4.41       3.37
O       2.60       1.09       2.51
H       7.46       6.01       3.15
O       0.94       3.17       4.50
O       5.25       4.45       4.50
H       6.19       6.98       2.98
H       7.46       6.01       5.86
H       6.19       6.98       6.03
H       3.15       1.61       3.15
H       1.88       0.64       2.98
C      -1.38       1.14       6.87
C      -0.27       4.93       9.06
C       7.36       5.83       9.68
C       4.04       2.69      -0.05
C       3.05       1.79      -0.67
C       2.93       6.47       2.14
C       4.04       2.69       9.06
C       3.05       1.79       9.68
C       2.93       6.47       6.87
C      -1.38       1.14       2.14
C      -0.27       4.93      -0.05
C       7.36       5.83      -0.67
C      -0.07       3.99       4.50
C       4.24       3.62       4.50
N       5.40       6.62       9.94
N       6.05       5.61       9.38
N       1.08       1.00      -0.93
N       1.74       2.01      -0.37
N       1.08       1.00       9.94
N       1.74       2.01       9.38
N       5.40       6.62      -0.93
N       6.05       5.61      -0.37
O      -0.12       1.32       6.95
O       6.40       1.97       6.40
O       0.97       5.11       9.17
O      -0.76       3.96       8.33
O      -0.53       4.41       5.64
O       2.60       1.09       6.50
O       5.28       2.51      -0.16
O       3.55       3.65       0.68
O       3.78       3.21       3.37
O       6.91       6.53       2.51
O       4.20       6.30       2.06
O       2.09       5.65       2.61
O       5.28       2.51       9.17
O       3.55       3.65       8.33
