23

Zn       8.72      11.71       0.00
O      10.73       9.23      -0.16
Zn       8.87       8.52      -0.11
O       4.64       9.84      -1.08
Zn       6.52       9.93      -1.61
Zn       6.55       9.98       1.57
O       8.79       7.54      -1.81
O       8.66       7.34       1.44
O       4.63       9.83       1.20
O       6.87      11.57       2.71
O       6.82      11.48      -2.76
O      10.60      11.40       0.45
O       7.25       8.58       2.73
O       6.71       8.18      -2.48
C       7.99       7.57       2.51
C       7.73       7.42      -2.50
O       8.02      12.98       1.35
O       8.57      12.57      -1.78
C       7.59      12.48      -2.63
C       7.38      12.73       2.41
C      11.28      10.34       0.24
C       4.07       9.74       0.05
O       7.67      10.06      -0.03
