15

C       4.78      19.69       2.87
C       3.41      19.51       4.60
C       7.71      25.59       3.29
C       8.40      23.65       2.46
Cu       6.42      21.92       3.73
Cu       4.34      21.82       6.11
C       3.20      23.60       8.11
Cu       5.79      24.55       5.27
C       3.97      25.52       7.33
N       4.38      20.40       4.92
N       5.24      20.50       3.85
N       7.46      23.40       3.40
N       7.04      24.60       3.92
N       4.56      24.53       6.65
N       4.08      23.33       7.13
