23

Zn      20.01       8.13      23.64
Zn      23.21       8.39      23.84
Zn      21.53       7.20      26.29
Zn      21.85       5.49      23.62
C      23.94       8.88      26.65
O      20.42       9.59      22.38
O      21.65       7.31      24.34
C      21.53      10.19      22.19
O      24.07       9.18      25.42
C      18.99       8.72      26.33
O      19.89       8.06      26.95
O      18.91       8.91      25.07
C      19.36       5.69      22.11
O      23.06       8.09      27.13
O      21.50       5.35      26.93
O      20.52       5.16      22.22
O      18.97       6.75      22.72
O      22.68       9.85      22.64
O      24.56       7.34      22.86
C      21.52       4.25      26.27
O      21.58       4.11      25.00
O      23.68       5.23      22.95
C      24.56       6.08      22.61
