32

Nd       7.51       2.79       5.83
Nd      11.81       3.20       7.01
H       4.59       0.99       4.48
H       8.90       4.99       8.35
H       5.75       0.35       1.97
H      10.04       5.63      10.87
C      10.29       0.61       5.41
C       5.98       5.38       7.43
C       9.74       6.33       5.00
C       5.44      -0.35       7.84
C       9.39       4.89       5.12
C       5.09       1.10       7.72
C       9.00       1.69       8.65
C       4.70       4.30       4.19
C       5.41       0.88       3.75
C       9.71       5.10       9.09
O       9.16       1.20       5.30
O       4.86       4.79       7.54
O      11.38       1.19       5.71
O       7.07       4.79       7.13
O       9.74       4.23       6.18
O       5.44       1.76       6.66
O       8.65       4.35       4.25
O      12.95       1.64       8.59
O       7.90       1.89       8.03
O      12.21       4.10       4.80
O      10.12       2.15       8.27
O       5.82       3.83       4.56
O       6.59       1.15       3.95
O      10.90       4.82       8.89
O       4.98       0.40       2.58
O       9.27       5.58      10.26
