23

Zn      22.35       7.79       0.58
Zn      23.85      10.63       0.71
Zn      25.55       7.91       0.73
Zn      24.02       8.82      -1.95
C      21.25      10.15       2.01
C      26.38      10.31       2.22
C      23.95       5.80       2.05
C      26.63       7.45      -1.98
C      21.51       7.28      -2.20
C      23.90      11.78      -2.01
O      23.94       8.79       0.01
O      21.17       8.92       1.68
O      25.38      11.03       1.88
O      25.09       6.34       1.81
O      22.21      10.96       1.74
O      22.81       6.21       1.65
O      26.62       9.12       1.84
O      26.72       7.28      -0.72
O      22.53       7.83      -2.75
O      25.69       8.03      -2.62
O      21.30       7.18      -0.95
O      23.86      11.95      -0.75
O      23.94      10.66      -2.64
