24

Al       1.76       6.94      14.10
Al       4.97       6.72      14.01
Al       3.39       4.17      14.07
O       1.16       5.70      15.56
O       2.59       8.07      15.51
O       5.83       5.73      12.65
O       4.86       8.01      15.35
O       5.95       5.71      15.29
O       4.71       3.81      15.40
O       2.16       3.67      15.35
O       1.09       5.78      12.67
O       2.51       8.08      12.68
O       4.79       8.06      12.74
O       4.69       3.77      12.75
O       2.16       3.76      12.73
O       3.39       5.94      14.06
O       0.26       7.83      14.12
H      -0.02       8.21      14.96
C       3.75       8.36      15.90
C       5.61       4.61      15.84
C       1.38       4.52      15.93
C       3.65       8.40      12.24
C       5.48       4.60      12.17
C       1.39       4.65      12.20
