18

Zn       5.70       7.38       8.16
Zn       8.54       7.48       8.04
O       6.10       7.45      10.14
O       8.04       6.91       6.08
O       5.80       7.31       6.13
O       8.30       8.08      10.02
O       6.12       5.32       8.13
C       7.22       7.82      10.64
O       8.23       9.37       7.44
O       6.03       9.45       8.02
O       8.33       5.56       8.61
C       6.92       7.16       5.55
C       2.52       7.31       8.23
C      11.71       7.32       8.01
C       7.28       4.88       8.35
C       7.12       9.96       7.65
N      10.55       7.38       7.96
N       3.68       7.33       8.28
