11

C       7.21      14.02       5.03
C       4.59       9.57       4.84
O       7.16      10.86       2.19
Zn       6.88      11.39       4.08
N       8.22      10.24       5.09
C       6.48      11.60       1.37
C       8.32      10.22       6.43
C       9.33       9.62       4.60
O       7.76      13.18       4.19
C       4.19      11.63       5.39
N       5.10      10.85       4.80
