10

O       1.05       4.09       4.20
Al      -0.01       5.03       2.90
O      -1.06       3.43       3.07
O      -1.06       5.97       4.20
O      -1.06       5.68       1.44
C      -1.99       6.81       3.93
C       1.97       3.25       3.93
C      -1.99       5.03       0.85
O       1.05       4.37       1.44
O       1.05       6.62       3.07
