33

U       2.22       7.47       4.91
C      -1.11       7.83       4.04
C      -2.41       8.33       3.96
C      -2.68       9.60       4.46
C      -1.63      10.33       5.03
C      -0.36       9.76       5.07
C       4.94       5.30       4.54
C       6.11       4.59       4.80
C       6.91       4.99       5.87
C       6.51       6.09       6.63
C       5.32       6.73       6.32
N      -0.10       8.53       4.59
N       4.54       6.35       5.29
H      -0.85       6.84       3.67
O       1.60       6.18       3.79
O       2.84       8.78       6.01
H      -3.20       7.73       3.52
O       2.37       5.76       6.62
H      -3.69      10.01       4.41
O       0.51       6.95       6.70
H      -1.78      11.34       5.42
H       0.48      10.30       5.51
O       2.13       9.16       3.10
H       4.29       5.04       3.70
O       3.93       7.89       3.19
H       6.37       3.72       4.19
H       7.83       4.45       6.11
H       7.12       6.45       7.45
H       4.96       7.58       6.90
C       0.93       5.33       8.51
C       3.71       9.37       1.28
C       1.27       6.05       7.21
C       3.24       8.79       2.59
