13

C       1.52      31.59      18.24
C       4.49      33.07      15.69
C       0.00      35.50      14.42
N       0.84      32.42      17.43
N       3.35      33.80      15.68
N       0.84      32.25      14.05
N       0.48      34.99      15.57
Zn       1.40      33.19      15.70
C       1.59      31.71      13.07
C      -0.36      32.69      18.08
C       3.79      35.09      15.67
C      -0.48      32.00      13.69
C       0.30      35.99      16.52
