18

Al       2.39       0.03       0.05
Al       5.72       0.06       0.05
O       5.20      -0.93       1.61
O       1.82       1.24      -1.33
O       2.88      -1.28      -1.30
O      -0.35       1.45       1.21
H       4.03       1.59      -0.73
H       0.69      -1.63      -0.39
O       2.97      -1.15       1.41
O      -0.43       1.11      -1.52
O       1.89       1.26       1.41
O       5.15      -1.39      -1.14
O       4.05       0.86      -0.09
O       0.71      -0.78       0.07
C       4.02      -1.72      -1.65
C       0.77       1.74       1.75
C       4.07      -1.38       1.99
C       0.72       1.51      -1.91
