14

Cu       3.67      23.91       9.11
O       0.93      23.02       8.20
O       4.18      24.58       7.30
Cu       1.44      24.93       8.52
C       1.80      23.76      11.15
C       3.31      26.77       9.41
O       2.92      23.26      10.80
O       2.19      26.72       8.80
O       3.05      22.21       8.25
C       1.81      22.11       7.99
O       1.11      24.58      10.47
C       3.30      24.85       6.40
O       4.00      25.77       9.79
O       2.06      25.03       6.62
