15

Cu      10.53      26.20       9.41
Cu       9.26      24.93      12.02
Cu      11.85      23.62      10.71
N       8.54      26.49      11.34
N       8.98      26.93      10.11
N      12.08      25.52       8.69
N      12.55      24.30       9.14
N      11.17      22.91      12.27
N       9.95      23.37      12.74
C       8.22      27.96       9.73
C       7.53      27.28      11.73
C      13.58      23.93       8.37
C      12.85      25.91       7.66
C       9.58      22.60      13.77
C      11.56      21.88      13.04
