23

Zn      15.36      11.32       7.28
Zn      15.67       9.15       9.60
Zn      16.99       8.62       6.74
Zn      13.78       8.54       7.04
C      16.36      12.00       9.90
C      12.45      11.15       6.88
C      16.95      10.86       4.84
C      13.61       7.14       9.63
C      18.48       8.39       9.22
C      15.27       7.10       5.03
O      15.93      10.92      10.43
O      16.28      12.35       8.68
O      12.37       9.89       6.75
O      13.47      11.85       7.18
O      17.50       9.77       5.21
O      16.12      11.58       5.49
O      13.31       7.18       8.39
O      14.27       8.00      10.30
O      18.51       8.47       7.94
O      17.45       8.33       9.96
O      14.17       7.69       5.29
O      16.29       7.02       5.79
O      15.45       9.39       7.68
