11

Cu       8.25       8.62      11.60
C       7.06      11.50      11.34
C      10.02       8.29      12.17
N       8.32       8.11       9.54
N       6.52       8.28      12.10
N       8.17      10.76      11.55
N       5.42       8.24      12.41
C       7.35       8.32       8.63
C       9.45       7.52       9.11
C       9.26      11.39      12.01
C      11.26       8.24      12.34
