20

Cu      -0.41       0.65      14.00
N      -3.39       2.33      16.74
Cu      -2.63      -0.64      13.99
Cu      -0.85      -1.08      15.79
Cu      -2.17       1.06      15.82
C      -3.12       3.55      17.18
C       0.05      -3.58      17.16
C       1.69      -2.17      16.95
C      -4.13      -2.16      11.87
C      -5.22      -0.40      12.54
C      -4.75       2.15      16.86
I      -2.50       2.12      13.31
I      -0.52      -2.09      13.29
I      -3.36      -1.33      16.60
I       0.32       1.30      16.64
N       1.11       1.15      12.82
N      -4.13      -1.12      12.78
N       0.34      -2.36      16.73
C       1.15       2.23      11.95
C       2.18       0.41      12.55
