18

Al       4.04      16.23       0.02
Al       0.68      16.36       0.03
O       1.21      17.29       1.61
O       3.57      17.56      -1.26
O       4.67      15.07      -1.43
O       3.47      17.34       1.51
O       4.57      14.85       1.25
O       1.32      17.84      -1.02
O       2.34      15.49      -0.12
O       6.85      14.84       1.08
O       6.86      15.60      -1.63
O       5.71      17.09       0.21
H       2.28      14.54       0.09
H       5.65      17.80       0.87
C       2.45      18.12      -1.52
C       2.35      17.60       2.06
C       5.74      14.42       1.53
C       5.80      15.01      -1.99
