20

Zn      12.28       7.56       6.98
Zn       9.63       6.76       8.03
C      11.85       4.74       7.38
C      10.12       9.52       8.12
C      11.94       7.22       9.90
C      10.01       7.13       5.13
C       7.31       5.61       9.81
C      14.59       8.84       5.32
C       6.74       6.75       7.90
C      15.15       7.55       7.14
N       7.69       6.22       8.66
N      14.21       8.11       6.39
O      12.79       5.53       7.03
O       9.09       8.82       8.34
O      10.63       5.04       7.53
O      11.17       9.16       7.52
O      12.81       7.46       9.01
O       9.14       7.03       6.06
O      10.70       6.97       9.74
O      11.27       7.24       5.26
