54

Zr       1.78      14.74      23.26
Zr      -1.78      18.25      23.26
Zr      -1.75      14.71      23.25
Zr       1.76      18.28      23.27
Zr       0.01      16.50      20.76
Zr      -0.00      16.49      25.76
H       0.03      13.71      21.29
H      -0.01      19.29      21.30
H      -2.79      16.48      25.22
H       2.79      16.51      25.24
C       2.30      14.32      20.08
C      -2.28      18.68      20.08
C      -2.20      18.76      26.45
C       2.20      14.22      26.45
C       0.04      12.00      23.32
C       4.50      16.52      23.21
C      -0.05      20.99      23.33
C      -4.49      16.45      23.19
C      -2.26      14.30      20.07
C      -2.20      14.19      26.42
C       2.18      18.79      26.45
C       2.30      18.72      20.11
O       2.58      14.03      21.30
O      -2.57      18.95      21.30
O      -2.49      19.03      25.23
O       2.49      13.95      25.23
O      -1.11      12.57      23.30
O       3.92      17.66      23.22
O       1.11      20.43      23.33
O      -3.89      15.32      23.19
O      -1.40      15.16      19.67
O      -1.35      15.06      26.82
O       1.34      17.92      26.85
O       1.44      17.86      19.70
O      -2.47      13.91      25.20
O       2.47      19.07      25.23
O       2.57      19.01      21.32
O      -2.53      14.01      21.29
O       1.18      12.58      23.31
O      -3.93      17.61      23.21
O      -1.17      20.38      23.32
O       3.92      15.38      23.21
O       1.34      15.08      26.84
O       1.44      15.17      19.68
O      -1.40      17.84      19.68
O      -1.35      17.90      26.85
O       1.99      16.51      24.68
O      -1.99      16.48      24.67
O      -0.00      18.49      21.86
O       0.02      14.51      21.85
O      -1.46      16.49      22.22
O       1.48      16.51      22.23
O      -0.01      17.96      24.30
O       0.01      15.02      24.29
