27

Zn       0.82       5.41       2.31
Zn      -2.45       6.11       3.53
Zn       4.09       4.71       3.53
C       3.19       2.52       5.45
C      -0.08       4.83      -0.54
C      -3.35       8.87       4.46
C      -1.55       8.29       5.45
C       1.72       5.98      -0.54
C       4.99       1.95       4.46
C       0.08       2.89       3.92
C      -3.19       5.98       0.54
C       3.35       7.35       4.91
C       1.55       7.93       3.92
C       4.82       4.83       0.54
C      -1.72       3.46       4.91
N      -0.24       4.09       3.46
N      -3.51       5.77       1.82
N       3.03       6.35       4.09
N       1.88       6.72       3.46
N       5.15       5.04       1.82
N      -1.39       4.46       4.09
N       4.09       2.96       4.54
N       0.82       5.41       0.29
N      -2.45       7.86       4.54
F      -0.82       6.69       2.38
F      -4.09       5.41       4.61
F       2.45       4.12       2.38
