27

O      -2.61      10.44       4.95
Zn      -2.50       8.55       4.42
O      -0.54       8.40       4.73
O      -3.26       7.72       2.79
O      -2.71       9.71       1.90
O      -6.19       4.86       0.06
C       0.48       8.12       4.00
C      -3.21       8.54       1.79
C      -3.74       8.11       0.49
C      -4.30       6.90       0.27
C      -4.79       6.46      -1.03
C      -5.75       5.42      -1.11
C      -6.23       4.99      -2.35
C      -5.78       5.58      -3.52
H      -3.65       8.84      -0.31
H      -4.40       6.22       1.11
C      -4.35       7.03      -2.24
C      -4.83       6.61      -3.47
H      -6.96       4.18      -2.39
H      -3.57       7.80      -2.20
H      -6.17       5.23      -4.48
H      -4.46       7.07      -4.38
C      -2.35       6.62       6.66
C      -4.49       6.80       5.81
H      -6.89       4.22      -0.14
C      -3.80      10.92       5.03
N      -3.21       7.21       5.81
