23

Zn       7.79       9.10      15.62
Zn       7.68      10.88      18.28
Zn       9.33      11.93      15.79
Zn       6.14      11.80      15.60
O       7.74      10.93      16.32
O       7.83       7.77      17.07
C       7.74       7.93      18.34
C      10.41       9.60      14.32
C       5.28       9.40      14.05
O       9.41       8.83      14.53
O       9.23      11.75      19.09
O       7.64       9.04      18.97
O      10.32      12.64      17.33
O       8.87      13.47      14.66
O       6.24       8.67      14.51
O       6.06      11.77      18.96
O       5.16      10.65      14.36
O       6.58      13.44      14.60
O       4.92      12.32      17.05
C      10.19      12.45      18.60
C       7.73      13.93      14.31
O      10.56      10.79      14.75
C       5.07      12.26      18.32
