14

C      -4.12      10.30       1.66
O      -3.59       9.89      -1.66
O      -4.57       9.20       1.21
O      -3.03      10.88       1.20
Zn      -4.04       7.68      -0.01
Zn      -2.25       9.69      -0.15
O      -3.21       6.52       1.33
O      -1.75       8.26       1.31
C      -2.12       7.11       1.69
C      -4.64       9.27      -2.07
O      -2.38       7.27      -1.36
C      -1.22       7.75      -1.61
O      -0.81       8.91      -1.25
O      -5.14       8.21      -1.51
