14

Zn       5.58       0.14      17.35
Zn       2.86       0.09      17.43
O       4.66       2.07      17.31
O       2.39       1.97      17.42
O       3.60       0.04      15.43
O       5.86       0.15      15.45
O       2.56      -1.82      17.47
O       4.83      -1.83      17.37
O       6.01       0.22      19.22
O       3.76       0.12      19.34
C       3.71      -2.41      17.43
C       4.91       0.17      19.89
C       3.51       2.62      17.37
C       4.73       0.08      14.84
