18

Al       6.34       6.81       5.81
Al       3.03       6.81       5.85
H       4.64       7.43       4.20
H       7.96       5.26       6.62
O       6.97       8.58       5.55
O       9.06       6.73       4.00
O       3.53       4.91       5.74
O       5.88       7.34       7.59
O       5.74       5.04       6.14
O       3.66       6.85       7.66
O       9.14       8.64       6.11
O       6.81       6.36       4.00
C       8.02       9.23       5.96
C       7.96       6.40       3.44
C       4.67       4.36       6.04
C       4.75       7.25       8.18
O       4.67       7.35       5.17
O       7.99       6.21       6.44
