10

Al       0.27      16.04      14.05
C      -1.77      14.27      15.10
O      -0.79      17.61      14.29
O      -0.80      15.05      15.32
O      -0.80      15.45      12.58
O       1.34      17.02      15.32
O       1.34      16.63      12.58
O       1.33      14.46      14.29
C      -1.74      17.81      15.10
C      -1.75      16.04      11.98
