23

Zn       7.45       8.94      15.57
Zn       7.29      10.73      18.19
Zn       8.86      11.87      15.62
Zn       5.78      11.75      15.55
O       7.35      10.79      16.23
O       7.46       7.61      17.00
C       7.34       7.79      18.27
C      10.02       9.54      14.26
C       5.04       9.37      13.92
O       9.03       8.74      14.43
O       8.96      11.50      18.95
O       7.22       8.91      18.87
C       9.67      12.42      18.44
C       4.70      12.14      18.22
O       5.78       8.55      14.54
O       5.75      11.75      18.83
O      10.13      10.72      14.72
O       9.54      12.87      17.25
O       8.47      13.46      14.55
O       5.15      10.65      13.98
O       6.19      13.37      14.54
O       4.50      12.15      16.95
C       7.31      13.90      14.22
