24

Al      11.77       8.41      13.25
Al      13.59      11.03      13.19
Al      14.97       8.37      13.19
O      11.19       9.54      11.80
O      14.74      11.35      11.74
O      14.83       7.07      11.89
O      12.55       7.12      11.84
H      10.04       7.03      14.01
C      13.67       6.77      11.39
O      11.20       9.81      14.57
C      11.43      10.73      11.45
O      12.21      11.56      12.04
O      12.42       7.37      14.79
O      15.11      11.29      14.31
O      12.61      11.60      14.66
O      13.46       9.27      13.20
C      15.57      10.50      11.28
O      15.89       9.39      11.83
O      14.66       7.09      14.54
O      16.04       9.22      14.47
O      10.23       7.59      13.24
C      13.55       6.96      15.19
C      11.64      10.86      15.11
C      15.86      10.42      14.89
