23

Zn      20.44      22.79      16.44
Zn      17.27      22.82      16.63
Zn      18.91      25.58      16.71
Zn      19.06      23.65      19.20
C      16.30      22.63      19.37
C      19.19      26.52      19.41
O      18.91      23.69      17.24
O      17.57      21.54      15.17
O      19.84      21.37      15.25
O      20.77      26.08      16.21
O      21.50      24.08      15.42
O      20.42      22.35      19.79
O      21.47      21.88      17.83
O      17.68      25.80      15.19
O      16.14      24.27      15.86
O      17.25      23.29      19.92
O      16.30      22.15      18.19
O      19.64      25.42      19.85
O      18.57      26.69      18.30
C      18.70      21.09      14.76
C      21.60      25.34      15.58
C      21.31      21.77      19.08
C      16.56      25.19      15.09
