24

Al       6.45       3.97      13.02
Al       4.95       1.16      13.44
Al       7.97       1.17      13.42
H       6.15       6.24      13.45
C       4.37       2.76      11.22
C       6.41      -0.69      11.88
C       8.63       2.77      11.29
C       4.19       3.30      14.96
C       6.54      -0.09      15.52
C       8.55       3.31      15.07
O       7.91       3.71      11.71
O       5.40       0.07      14.98
O       7.68       0.10      14.97
O       9.00       2.22      14.54
O       6.46       2.07      13.29
O       5.23       3.63      11.50
O       3.96       1.80      11.99
O       5.27      -0.36      12.37
O       7.54      -0.36      12.37
O       8.96       1.70      11.94
O       7.65       4.06      14.58
O       4.94       4.08      14.30
O       3.91       2.08      14.64
O       6.49       5.69      12.73
