14

C      -1.99      15.52       9.30
C      -6.99      15.56       9.73
O      -4.78      16.08       6.59
O      -4.21      16.70      10.92
Zn      -4.60      17.00       8.28
Zn      -4.46      14.84       9.89
O      -4.59      14.22       7.90
O      -4.39      18.48       9.53
O      -2.63      16.33       8.55
O      -6.34      14.67      10.38
O      -2.54      14.60      10.02
O      -6.47      16.42       8.94
C      -4.67      14.80       6.77
C      -4.17      17.94      10.68
