20

Zn       3.38       5.69      14.18
Zn       6.23       5.70      14.14
C       4.98       3.12      14.24
C       4.63       5.84      16.72
C       4.95       8.27      14.10
C       4.64       5.22      11.67
C       0.47       6.36      13.25
C      -0.95       5.02      15.12
C      -0.94       6.34      13.23
C       0.46       4.99      15.11
N       1.15       5.67      14.18
N      -1.64       5.68      14.17
O       3.97       3.68      14.75
O       6.00       3.72      13.78
O       5.72       5.54      16.15
O       3.54       6.16      16.14
O       6.02       7.68      14.46
O       3.90       7.68      13.71
O       3.57       4.94      12.31
O       5.61       5.89      12.13
