25

Zn       4.67      11.09       7.45
Zn       5.57       9.64       4.74
Zn       2.76      13.18       8.96
O       4.04      13.11      10.42
O       6.46       8.34       5.87
O       5.44      11.75       9.25
O       5.67       9.31       7.77
C       6.02       9.87       1.85
C       0.09      14.36       9.18
C       3.83      14.26       6.80
C       5.52       7.69       2.50
C       2.95       9.54       5.04
C       1.76      15.80       9.93
C       6.72      12.20       5.36
C       1.81      10.50       8.56
C       5.13      12.43      10.27
C       6.31       8.42       7.15
N       5.70       8.99       2.81
N       1.39      14.62       9.39
O       6.65      11.29       4.46
O       1.47      11.67       8.98
O       6.17      12.15       6.50
O       2.95      10.17       8.14
O       3.45      13.03       7.10
O       3.86      10.43       5.38
