23

Zn       7.29      18.69       1.01
Zn       8.93      20.23      -1.27
Zn       8.83      17.07      -1.24
Zn      10.54      18.62       1.00
O       8.91      18.66      -0.10
O       6.14      20.25       0.66
O       8.82      19.78      -3.18
O       7.24      15.97      -0.92
O       7.42      21.40      -0.82
O       6.21      17.06       0.78
O       8.90      17.50      -3.15
O      10.40      15.94      -0.89
O      10.08      18.59       2.93
O      11.68      17.07       0.60
O       7.80      18.73       2.91
O      10.58      21.27      -1.06
O      11.59      20.26       0.70
C       6.41      21.27      -0.07
C       8.91      18.63      -3.74
C       6.34      16.08      -0.03
C      11.43      16.07      -0.15
C       8.94      18.65       3.49
C      11.47      21.20      -0.16
