36

Zn      -6.29      10.90      14.77
Zn      -3.16       9.57      18.14
Zn      -5.78       8.09      16.54
Zn      -3.36      12.19      16.00
N      -6.73      10.79      16.77
N      -2.94       8.45      16.48
N      -6.86       7.98      14.86
N      -1.58      11.66      16.81
N      -1.57      10.83      17.92
N      -7.27       9.17      14.30
N      -3.37      10.88      14.44
N      -3.95       8.27      15.60
N      -4.45      11.14      18.55
N      -4.95       7.24      18.17
N      -4.70      13.43      14.97
N      -4.18       8.05      19.00
N      -5.96      12.94      14.83
N      -4.19      12.27      17.84
N      -6.88       9.57      17.32
N      -4.54      10.73      13.78
C      -7.67      11.62      17.28
C      -4.28      10.59      12.46
C      -1.93       7.61      16.18
C      -7.21       7.01      14.03
C      -0.31      12.01      16.58
C      -0.30      10.70      18.34
C      -7.87       8.88      13.13
C      -2.35      10.81      13.55
C      -4.82      11.54      19.78
C      -3.57       7.33      14.70
C      -5.36       6.22      18.92
C      -4.76      14.74      14.68
C      -4.18       7.50      20.20
C      -6.80      13.94      14.50
C      -4.37      13.35      18.62
C      -7.94       9.60      18.17
