18

O      15.98       9.10      29.45
Zn      20.31       9.09      29.53
Zn      17.26       9.15      30.92
O      17.88       7.27      31.08
O      19.53       7.27      29.52
O      21.60       9.29      30.96
N      21.71       8.86      28.02
C      14.58       9.32      31.93
N      15.83       9.26      32.43
C      15.99       9.19      33.77
C      18.89      11.52      30.21
C      16.11       9.08      28.15
C      18.70       6.69      30.29
C      21.47       9.05      32.24
C      22.94       8.56      28.50
C      21.57       9.06      26.69
O      19.62      10.95      29.34
O      18.10      10.94      31.02
