23

Zn      19.77       9.60       0.83
Zn      20.62      11.09      -1.90
Zn      18.60      12.42       0.32
Zn      21.79      12.18       0.75
O      20.20      11.32      -0.00
O      20.14       8.16      -0.43
O      19.47      12.40      -2.89
O      17.23      11.59       1.42
O      20.25       9.25      -2.43
O      17.97       9.44       1.55
O      17.70      12.62      -1.47
O      19.13      14.14       1.06
O      22.69      10.79       1.88
O      21.26      13.74       1.79
O      20.92       9.48       2.48
O      22.43      11.60      -2.42
O      23.16      12.66      -0.55
C      20.20       8.19      -1.70
C      18.28      12.73      -2.59
C      17.10      10.36       1.76
C      20.20      14.45       1.70
C      22.11       9.91       2.59
C      23.29      12.28      -1.76
