36

Zn       6.92       5.50      21.79
Zn       7.01       5.59      25.00
Zn       4.15       7.57      24.97
Zn       4.32       7.77      21.68
N       5.02       4.88      21.76
N       5.15       4.82      24.86
N       4.00       5.56      24.82
N       3.99       5.77      21.77
N       2.56       8.31      22.57
N       2.49       8.15      23.93
N       8.00       4.07      24.11
N       7.89       4.01      22.75
N       7.83       7.03      22.69
N       7.85       7.10      24.05
N       5.35       8.93      24.14
N       5.48       8.96      22.79
N       5.70       7.35      20.05
N       5.46       7.15      26.69
C       4.54       3.69      21.33
N       6.74       6.51      19.98
N       6.62       6.51      26.79
C       4.85       3.60      25.35
C       2.99       4.79      25.27
C       2.88       5.16      21.35
C       1.34       8.68      22.13
C       1.23       8.42      24.32
C       8.44       2.88      24.55
C       8.27       2.78      22.36
C       8.91       7.70      22.22
C       8.94       7.80      24.43
C       5.61      10.18      24.61
C       5.82      10.22      22.42
C       5.80       8.22      19.03
C       5.28       7.85      27.83
C       7.19       6.80      27.99
C       7.51       6.86      18.91
