23

Zn      22.33       7.80       0.59
Zn      23.82      10.64       0.70
Zn      25.53       7.92       0.73
Zn      23.99       8.83      -1.95
C      21.23      10.16       2.00
C      26.35      10.32       2.22
C      23.94       5.80       2.05
C      26.60       7.47      -2.00
C      21.48       7.30      -2.20
C      23.88      11.79      -2.01
O      23.92       8.80       0.02
O      21.14       8.93       1.66
O      25.36      11.03       1.86
O      25.07       6.34       1.81
O      22.19      10.96       1.74
O      22.79       6.21       1.66
O      26.58       9.11       1.88
O      26.70       7.32      -0.73
O      22.48       7.88      -2.75
O      25.65       8.03      -2.64
O      21.28       7.18      -0.95
O      23.84      11.97      -0.75
O      23.92      10.68      -2.63
