54

Zr      14.48      12.56      11.80
O      15.95      13.77      13.04
O      12.18      13.04      11.72
Zr      12.24      15.34      11.24
Zr      15.54      15.85      12.38
Zr      14.94      13.65      15.12
Zr      11.67      13.09      14.01
O      10.85      17.01      11.63
O      10.21      14.61      10.55
O      12.06      11.71      15.68
O      10.27      13.91      15.56
O      15.02      15.35      16.99
O      11.90      14.48       9.12
O      14.12      12.16      16.54
O      16.94      14.25      15.52
O      13.08      16.91       9.87
O      15.90      17.85      12.97
O      11.27      17.84      13.71
H      11.63      12.48      11.15
H      16.89      13.52      13.04
O      11.84      15.00      13.27
O      13.45      16.83      12.47
O      12.86      14.32      15.52
O      14.60      15.49      14.21
H      13.44      17.76      12.22
H      12.60      14.30      16.45
Zr      12.76      16.40      14.54
O      15.26      16.98      10.53
O      17.36      15.94      14.06
O      10.90      16.10      15.64
O      14.43      18.26      14.66
C      16.50      11.13      13.83
C      13.43      10.73      10.20
C       9.86      11.50      12.92
C      16.96      13.94      10.24
C      10.63      17.80      12.60
C      14.47      16.49      17.06
C      10.67      14.28       9.40
C      14.27      17.39       9.84
C      17.43      15.41      15.20
C      13.02      11.50      16.49
C      10.22      15.09      16.05
C      15.58      18.35      14.12
O      13.31      16.79      16.55
O      16.08      11.81      14.83
O      13.77      11.89       9.76
O      11.01      11.05      13.27
O      16.16      12.96      10.44
O      16.99      15.03      10.90
O       9.56      12.72      13.12
O      13.62      10.44      11.43
O      16.03      11.17      12.65
O      14.15      14.59      11.43
O      13.71      12.72      13.70
