18

Al       9.94       5.13       7.49
Al      13.26       5.22       7.44
H      11.64       3.73       6.49
H       8.31       6.67       8.33
O       9.42       3.29       7.58
O       7.12       5.51       5.60
O      12.70       7.05       7.52
O      10.49       4.98       9.33
O      10.45       6.98       7.44
O      12.76       4.96       9.29
O       7.17       3.39       7.34
O       9.37       5.17       5.65
O      11.61       4.63       6.86
C       8.27       2.75       7.47
C      11.55       7.60       7.48
C      11.64       4.91       9.88
C       8.26       5.35       5.05
O       8.28       5.74       8.07
