13

C       2.78      14.93       5.96
Cu       4.65      14.48       8.36
C       6.57      12.90       6.60
N       5.35      14.55      10.27
N       3.96      14.42       6.45
N       2.96      15.49       8.89
C       4.77      15.25      11.31
C       1.95      15.93       8.07
N       6.35      13.47       7.83
C       4.54      13.72       5.42
C       7.36      13.04       8.66
C       6.53      14.04      10.77
C       2.74      16.07      10.12
