27

N       7.49       2.02      10.16
Zn       6.78       0.68      11.55
O       6.89      -1.22      11.02
O       4.82       0.83      11.24
O       7.54       1.50      13.18
O       6.99      -0.48      14.07
O      10.47       4.36      15.91
C       8.08      -1.70      10.94
C       6.63       2.60       9.31
C       3.80       1.10      11.97
H       7.94       0.38      16.28
H       8.68       3.01      14.86
H      11.24       5.05      18.36
H      10.45       4.00      20.45
H       8.74       2.15      20.35
H       7.85       1.42      18.17
C       7.49       0.68      14.18
C       8.02       1.11      15.48
C       8.58       2.32      15.70
C       9.07       2.77      17.00
C      10.03       3.81      17.08
C      10.51       4.24      18.32
H      11.17       5.01      16.11
C       9.12       2.61      19.44
C       8.63       2.19      18.21
C      10.06       3.64      19.49
C       8.77       2.43      10.16
