23

Cd       4.33       5.65      13.45
Cd       4.69       2.26      15.41
C       5.20       0.73      17.69
N       2.39       2.34      15.77
N       7.03       2.35      15.22
N       6.61       5.26      13.22
N       1.99       5.43      13.83
C       4.42       2.03      12.61
C       4.57       5.80      16.26
C       1.52       1.63      15.02
O       4.65       1.02      13.36
C       1.91       3.17      16.71
O       4.37       6.81      15.51
O       4.80       4.64      15.77
C       7.79       2.88      16.20
C       7.63       1.69      14.22
O       4.15       5.94      11.16
C       7.45       5.76      14.15
C       7.12       4.58      12.18
O       4.92       1.98      17.72
C       1.40       6.30      14.67
C       1.22       4.63      13.07
C       3.67       7.13      11.18
