10

Al       0.02       5.15       9.00
C      -2.07       5.17      11.04
C      -2.04       6.89       7.94
C      -2.07       3.37       8.01
O      -1.08       4.15       7.78
O      -1.08       4.58      10.49
O      -1.09       6.67       8.78
O       1.13       3.61       8.83
O       1.12       6.12       7.74
O       1.12       5.77      10.44
