15

C       0.92      -5.35      19.44
C      -6.33      -4.04      21.71
C      -5.27      -5.89      22.32
C      -1.67      -0.77      17.86
N      -0.32      -4.88      19.68
C      -3.75      -0.39      18.51
N      -0.98      -5.79      20.46
Cu      -2.71      -5.45      20.99
Cu      -1.20      -3.35      19.16
Cu      -4.21      -2.80      20.10
N      -4.44      -5.17      21.55
N      -5.10      -4.02      21.17
N      -3.35      -1.57      19.03
N      -2.06      -1.81      18.62
C      -0.15      -6.82      20.71
