20

Zn       5.27       5.86       8.78
Zn       2.54       5.83       8.48
C       3.78       3.22       8.63
C       4.04       8.46       8.64
C      -0.04       7.00       7.55
C       7.85       4.69       9.71
C      -0.27       5.23       9.07
C       8.08       6.45       8.20
C       3.63       5.84      11.25
C       4.19       5.85       6.02
N       7.31       5.65       8.92
N       0.50       6.03       8.34
O       4.89       3.83       8.72
O       2.93       7.85       8.55
O       2.63       3.76       8.54
O       5.19       7.92       8.72
O       4.82       5.86      10.79
O       3.00       5.82       6.48
O       2.56       5.81      10.55
O       5.25       5.88       6.72
