23

O      16.34       8.05       8.65
O      15.22      10.02       8.89
Zn      19.58      11.30       7.67
O      18.14       7.21       6.20
Zn      17.96       8.50       7.65
O      17.94      10.38       7.11
Zn      16.33      11.25       7.84
Zn      17.81      10.33       5.15
O      17.85       8.53       4.38
C      17.99      13.31       9.15
C      20.38      11.80       4.89
C      20.42       8.95       9.24
C      15.38      11.96       5.17
C      15.39       8.77       9.09
C      18.07       7.42       4.95
O      16.87      12.71       9.03
O      19.12      12.94       8.69
O      19.34      11.26       4.39
O      20.68      11.86       6.13
O      19.49       8.20       8.81
O      20.64      10.16       8.90
O      16.23      11.28       4.52
O      15.18      11.97       6.42
