18

Al       5.33       6.97       6.42
O       2.51       8.02       4.94
O       5.87       5.88       7.92
Al       1.98       6.93       6.44
O       4.79       8.37       7.62
O       8.14       5.54       5.24
O       4.79       8.05       4.92
O       8.14       5.85       7.94
O       5.87       5.61       5.18
O       2.51       8.30       7.68
O       3.66       6.15       6.52
O       7.01       7.76       6.34
H       3.68       5.30       6.99
H       7.03       8.60       5.87
C       3.65       8.74       8.06
C       7.00       5.17       4.80
C       3.64       8.36       4.46
C       7.00       5.55       8.40
