23

Zn      -7.16      10.13       4.55
Zn     -10.36      10.15       4.58
Zn      -8.76      12.94       4.61
Zn      -8.75      11.12       1.95
C      -6.24       9.59       1.80
C     -11.27      12.51       6.09
C      -6.18      12.53       5.97
C     -11.33       9.70       1.83
C      -8.76       8.10       5.96
C      -8.76      14.08       1.88
O      -7.13      10.29       1.20
O     -10.38      13.33       5.66
O      -6.00      11.33       5.59
O     -11.51       9.62       3.09
O      -8.76      11.10       3.92
O      -7.61       8.62       5.72
O      -9.90       8.51       5.57
O      -8.74      12.97       1.25
O      -8.77      14.26       3.14
O      -7.18      13.29       5.73
O     -10.33      10.21       1.21
O      -6.14       9.38       3.05
O     -11.37      11.27       5.83
