15

C      24.92       1.47      12.97
Cu      24.03       4.63      15.16
Cu      21.43       5.94      13.85
N      24.79       3.12      14.43
Cu      22.70       3.33      12.59
N      24.20       2.55      13.32
N      21.20       4.07      11.81
C      20.48       3.71      10.73
N      20.65       5.20      12.35
C      25.87       2.39      14.76
N      23.29       6.14      15.92
C      23.64       6.88      16.99
N      22.17       6.71      15.35
C      19.58       5.55      11.60
C      21.84       7.79      16.07
