13

Zn       7.75       0.06      38.24
C       7.78      -1.52      35.69
C      10.20       1.38      39.30
N       7.28      -0.49      36.39
C       7.38      -1.41      40.84
C       6.73      -2.65      39.18
C       5.45       1.54      39.39
C       6.73       2.95      38.35
N       7.27      -1.42      39.50
C       6.37       0.13      35.55
N       9.66       0.61      38.34
N       6.63       1.63      38.75
C      10.68       0.37      37.43
