24

Al      13.04       8.30      16.41
Al      11.59       5.47      16.80
Al       9.90       7.95      16.78
O      12.45       9.36      17.92
O      10.20       4.88      15.67
O       8.92       6.74      15.69
H      15.29       8.93      16.10
O      11.50       7.22      16.68
C      13.69       6.16      18.44
O       9.75       9.08      15.32
O      13.98       7.19      17.76
C       9.72       6.06      18.89
O      12.96       5.18      18.02
O      10.45       5.19      18.30
O       9.21       7.09      18.31
O      10.19       9.39      17.95
O      11.99       9.35      15.18
O      13.50       7.09      14.93
O      12.69       5.01      15.36
O      14.42       9.35      16.06
C      11.35       9.60      18.50
C      13.23       5.90      14.59
C       9.31       5.65      15.16
C      10.82       9.42      14.67
