19

Lu      -0.00       9.10       2.89
O       2.00      10.47       3.39
O      -2.18      10.16       3.39
O       0.18       6.69       3.39
N       2.35       9.77       4.41
N      -1.75      10.81       4.41
N      -0.60       6.73       4.41
O       1.60       8.26       1.62
O      -0.07      10.91       1.62
O      -1.53       8.14       1.62
C       2.70       8.67       1.05
C      -0.97      11.66       1.05
C      -1.73       6.98       1.05
O       1.64       8.72       4.64
O      -0.49      10.71       4.64
O      -1.15       7.88       4.64
O       3.30      10.09       5.13
O      -2.50      11.47       5.13
O      -0.80       5.75       5.13
