12

Li       0.63       7.79      19.52
O       1.80       6.18      19.52
Li      -1.37       8.25      17.79
C       2.12       9.80      21.18
O      -1.21       7.31      19.49
O      -2.03       7.14      16.36
C       2.93       6.50      20.04
O       0.48       8.73      17.82
O      -2.54       9.86      17.79
C      -2.85       6.24      16.13
O       1.29       8.89      20.95
C       1.29       9.54      17.27
