44

Tb      10.64       8.72      19.92
O       6.86       7.23      20.29
Tb       6.39       8.72      18.57
C      12.63       7.29      22.37
O       8.67       9.90      19.32
O      12.21      10.20      20.66
O       5.37       6.74      17.68
H       6.36      10.80      23.22
C       9.23       7.39      17.16
H      10.43      10.62      24.08
C      13.35      10.73      20.72
H       7.01      12.23      24.08
H       6.86      10.66      24.94
C       8.30      10.87      18.55
H       9.67      12.21      24.43
C      11.77       6.33      24.43
C       7.94       6.71      20.73
C      12.98       6.57      18.55
H      11.62       5.24      24.43
H      14.93       6.66      23.23
H      12.00       6.64      25.46
H      14.28       5.23      24.08
C       7.09      11.13      23.97
C       8.66      10.16      22.37
C      12.06      10.05      17.16
H       7.75       9.96      21.77
H      10.86       6.83      24.08
H      14.43       6.79      24.94
H      13.54       7.48      21.77
H       9.29      10.80      25.46
C       9.52      11.12      24.43
N      12.86       6.69      23.55
C      14.20       6.32      23.97
N       8.43      10.76      23.55
O      10.19       7.41      17.99
O       9.80       9.85      21.96
O       5.92      10.22      20.29
O       8.02       7.71      17.44
O       4.75       9.74      17.43
O      12.62       7.55      19.32
O       9.08       7.25      20.66
O       7.40      10.71      17.68
O      11.10      10.04      17.99
O      11.49       7.59      21.96
