10

Al       0.01      14.07      16.25
C       1.99      13.95      14.21
C       1.99      15.90      17.16
C       1.99      12.36      17.37
O       1.06      13.20      17.59
O       1.06      13.35      14.82
O       1.06      15.67      16.34
O      -1.04      12.50      16.54
O      -1.04      15.11      17.46
O      -1.04      14.61      14.74
