23

Zn      18.58       7.32       8.88
Zn      17.05       4.50       8.68
Zn      18.73       5.50       6.20
Zn      20.27       4.65       8.88
C      15.97       6.82      10.16
C      16.21       3.95       5.88
C      18.66       8.46       6.15
C      21.35       4.14       6.18
C      21.11       7.06      10.43
C      18.67       2.52      10.16
O      18.66       5.50       8.16
O      16.90       7.64       9.86
O      15.98       3.94       7.15
O      18.65       7.35       5.53
O      15.89       5.59       9.83
O      18.66       8.64       7.42
O      17.27       4.49       5.39
O      20.41       4.72       5.53
O      21.34       5.88       9.96
O      21.44       4.00       7.44
O      20.04       7.71      10.13
O      17.53       2.89       9.72
O      19.80       3.09       9.97
