20

O       9.91      10.07      11.57
O       7.74      10.54       7.34
Zn       7.35      10.18       9.35
O      10.01      10.62       7.47
Zn      10.19      10.35       9.54
O       7.42      12.21       9.64
O       9.69      12.34       9.74
O       7.71       8.19       8.99
O       9.95       8.30       9.33
C       8.75       9.82      12.03
C       8.91      10.71       6.84
C       8.52      12.86       9.71
C       8.86       7.66       9.16
C       4.68      10.52      10.55
C       4.59       9.58       8.43
C      12.90      10.07      10.69
C      12.94      10.57       8.43
N       5.31      10.06       9.45
N      12.24      10.35       9.56
O       7.66       9.85      11.36
