23

Zn       9.17       1.61       9.76
Zn       7.57      -0.00       7.50
Zn       9.18      -1.60       9.76
Zn      10.78       0.00       7.51
O       9.18       0.00       8.63
O       9.48      -1.09      11.65
O      10.27       0.32       5.62
O       8.87       1.10      11.65
O       8.08      -0.31       5.62
O       6.56       1.67       7.66
O       7.50      -2.61       9.61
O      11.78      -1.67       7.66
O      10.85       2.61       9.60
O       6.40      -1.50       7.95
O       7.67       2.78       9.31
O      11.96       1.50       7.95
O      10.68      -2.77       9.32
C       9.17       0.00       5.05
C       9.17       0.01      12.21
C       6.70       2.62       8.50
C       6.55      -2.48       8.76
C      11.65      -2.62       8.51
C      11.80       2.48       8.76
