18

Al       0.83       5.42       8.92
Al       4.33       5.45       8.93
O       3.68       6.49      10.42
O       2.59       4.63       8.77
O       4.97       4.46       7.39
O       4.89       3.99      10.08
O      -0.91       6.19       9.10
H       2.59       3.68       9.00
H      -0.88       7.09       9.49
C       2.54       6.71      10.93
C       2.60       7.30       7.47
C      -0.89       4.35       6.81
C      -0.94       3.52      10.35
O       3.75       6.84       7.76
O       1.41       6.24      10.56
O       0.20       3.88       9.90
O       1.47       6.92       7.93
O       0.26       4.64       7.26
