24

C      13.58       8.26       2.35
C      17.40       7.90       2.42
Al      17.38      10.19       0.44
Al      14.19      10.30       0.46
Al      15.49       7.59       0.42
O      17.90       8.93      -0.98
O      16.74      11.39      -0.96
O      14.47      11.54      -0.90
O      13.13       9.39      -0.81
O      14.25       7.43      -1.02
O      16.74       6.97      -0.79
O      17.87       8.94       1.89
O      16.67      11.35       1.90
O      14.44      11.67       1.72
O      13.31       9.43       1.90
O      14.06       7.32       1.64
O      16.57       7.09       1.87
O      15.67       9.35       0.44
O      18.94      11.00       0.44
H      19.54      10.78       1.17
C      15.62      11.73      -1.44
C      13.47       8.34      -1.46
C      17.55       7.79      -1.39
C      15.58      11.79       2.34
