11

Zn       1.83       3.32      11.86
N       3.22       4.36      10.72
N       3.22       2.29      13.00
O       1.20       4.75      13.07
O       1.20       1.89      10.65
C       3.38       4.17       9.40
C       3.97       5.30      11.33
C       3.38       2.48      14.32
C       3.97       1.35      12.39
C       0.31       4.20      13.84
C       0.31       2.44       9.87
