23

Zn      18.43       7.28       8.85
Zn      16.89       4.43       8.69
Zn      18.65       5.46       6.19
Zn      20.09       4.53       8.87
O      18.50       5.44       8.16
O      16.78       7.56       9.89
C      15.81       6.76      10.14
C      18.53       8.43       6.14
O      15.86       3.79       7.13
O      18.46       8.62       7.40
C      20.92       6.92      10.40
O      15.69       5.55       9.76
C      18.50       2.41      10.15
O      18.61       7.30       5.54
O      19.95       7.68      10.04
O      17.36       2.85       9.76
O      17.13       4.51       5.39
O      20.29       4.62       5.50
O      21.10       5.72      10.05
O      21.30       3.96       7.44
O      19.64       2.92       9.90
C      16.13       3.92       5.89
C      21.23       4.08       6.17
