24

Cu       4.65       8.26      15.82
Cu      -1.53       7.60      15.91
Cu       1.56       7.89      15.53
Cu       7.75       7.97      16.19
N       5.50       9.53      17.09
N       6.89       9.49      17.14
N      -0.68       6.34      14.64
N       0.71       6.38      14.59
N       2.41       9.16      14.27
N       3.80       9.20      14.31
N       8.60       6.71      17.46
N       9.98       6.66      17.42
Cl       3.10       7.00      17.10
Cl       9.28       8.86      14.63
Cl       0.01       9.17      16.79
Cl       6.19       6.69      14.94
C       4.82      10.37      17.86
C       7.56      10.30      17.94
C      -1.36       5.50      13.87
C       1.38       5.56      13.79
C       1.73       9.93      13.43
C       4.47      10.01      13.50
C       7.91       5.94      18.30
C      10.65       5.85      18.23
