18

Al       5.80       6.50       8.46
Al       2.47       6.50       8.46
O       6.28       7.64       6.98
H       4.12       8.24       8.18
H       7.47       4.73       8.62
C       4.18       4.82      10.18
C       7.41       8.18       6.74
C       4.08       5.01       6.58
C       7.51       7.94      10.37
O       2.95       5.53       6.87
O       6.43       7.81       9.70
O       5.17       5.16       7.23
O       5.31       5.36       9.95
O       8.51       7.94       7.34
O       3.09       5.05       9.57
O       4.13       7.33       8.51
O       7.46       5.67       8.41
O       8.65       7.45      10.06
