14

O      -7.67       6.27       8.32
O      -6.25       2.78       5.80
Zn      -7.68       3.43       7.07
Zn      -6.24       5.62       7.04
C      -5.59       3.63       9.04
C      -8.33       5.42       5.07
C      -8.66       5.57       8.68
C      -5.25       3.48       5.43
O      -6.52       2.87       8.63
O      -7.40       6.18       5.49
O      -5.26       4.78       8.59
O      -8.66       4.27       5.52
O      -8.93       4.38       8.35
O      -4.99       4.67       5.76
