52

Tb      16.37       5.56       4.06
Tb      23.65       5.56       8.52
Tb      12.73       7.51       6.29
Tb      20.01       3.60       6.29
O      19.05       2.64       4.38
O      13.69       8.47       4.38
O      20.96       2.64       8.20
O      11.78       8.47       8.20
O      17.51       3.74       3.14
O      15.22       7.37       3.14
O      22.50       3.74       9.44
O      10.24       7.37       9.44
C      23.24       3.69       5.60
C       9.50       7.42       5.60
C      16.78       3.69       6.98
C      15.96       7.42       6.98
O      16.38       5.56       1.58
O      23.64       5.56      11.00
O      12.73       9.95       6.29
O      20.01       1.16       6.29
H      15.90       6.20       1.04
H      16.84       4.91       1.04
H      24.12       6.20      11.55
H      23.18       4.91      11.55
C      18.37       2.82       3.33
C      14.37       8.29       3.33
C      21.65       2.82       9.25
C      11.09       8.29       9.25
H      12.40      10.49       7.02
H      20.34       0.62       7.02
H      13.07      10.49       5.56
H      19.68       0.62       5.56
C      13.35       4.74       4.18
C      19.39       6.37       4.19
C      12.11       4.74       8.40
C      20.63       6.37       8.40
O      14.39       4.38       3.55
O      18.35       6.73       3.55
O      11.07       4.38       9.03
O      21.67       6.73       9.03
O      13.35       5.71       5.01
O      19.39       5.39       5.01
O      12.11       5.72       7.58
O      20.63       5.39       7.58
O      23.53       4.18       6.73
O       9.21       6.93       6.74
O      16.48       4.18       5.85
O      16.26       6.93       5.85
O      22.05       3.40       5.23
O      10.69       7.71       5.23
O      17.96       3.40       7.35
O      14.78       7.71       7.35
