18

Mg      -1.24      21.33      11.10
Mg      -3.52      21.16      12.92
Mg       1.05      19.67      11.86
C      -1.55      23.53      13.18
C       3.02      18.26      13.79
C       0.74      20.36       8.92
C       0.74      22.38      13.26
O       1.92      22.34      13.73
O      -0.37      18.37      12.49
O      -2.65      21.43       9.67
O       0.30      21.45      12.47
O      -1.98      19.91      12.34
O      -4.27      20.79      11.07
O      -2.14      22.55      12.47
O       2.43      19.36      13.29
O       0.15      20.24      10.12
C      -1.55      18.76      12.76
C      -3.83      21.00       9.87
