18

Mg      -0.03      -1.04      20.33
Mg      -2.29       0.67      20.96
Mg       2.22       0.36      19.17
C      -0.37      -0.14      23.22
C       4.13       2.72      18.74
C       1.88      -2.59      18.51
C       1.92       0.44      22.25
C      -0.34       1.58      18.72
C      -2.59      -2.04      19.50
O       3.09       0.92      22.41
O       0.84       1.48      18.22
O      -1.42      -2.42      19.83
O       1.52       0.08      21.06
O      -0.73       0.73      19.63
O      -2.98      -0.83      19.78
O      -0.94      -0.39      22.03
O       3.56       1.81      19.55
O       1.31      -1.44      18.89
