24

Zn       3.10      18.58      13.24
C       0.22      19.40      12.32
C       0.26      17.65      13.83
Zn       3.78      21.68      15.92
N       1.60      21.63      15.82
N       5.96      21.74      16.09
O       3.15      16.50      13.22
C       3.58      21.44      12.74
O       4.11      21.55      13.88
O       3.06      20.37      12.26
O       3.74      23.77      15.94
O       2.78      18.71      15.27
O       3.82      19.89      16.89
C       3.43      23.90      17.18
C       0.88      22.03      14.76
C       0.96      21.27      16.94
C       6.63      22.61      15.32
C       6.66      20.87      16.84
C       3.31      18.82      16.42
C       3.46      16.37      11.97
C       6.01      18.23      14.40
C       5.93      18.99      12.22
N       5.28      18.63      13.34
N       0.93      18.53      13.06
