19

Pr       0.00       9.28       5.52
O       0.69       5.74       3.24
O      -3.42      10.46       3.24
O       2.73      11.65       3.24
N       0.53       6.74       3.94
N      -2.46      10.09       3.94
N       1.93      11.01       3.94
O      -1.76       8.36       6.85
O       0.08      11.28       6.85
O       1.69       8.22       6.85
C      -2.90       8.82       7.32
C       1.05      12.02       7.32
C       1.85       7.01       7.32
O       1.14       7.85       3.68
O      -1.81       9.01       3.68
O       0.67      10.99       3.68
O      -0.26       6.75       4.96
O      -2.07      10.77       4.96
O       2.32      10.33       4.96
