18

Al       0.80       5.80       8.75
Al      -2.53       5.81       8.75
O      -0.87       4.99       8.68
O      -2.00       6.87      10.27
O      -2.01       7.21       7.55
H       2.47       7.27       9.62
H      -0.87       4.12       9.12
C       2.47       4.49       6.74
C       2.48       3.89      10.28
C      -0.87       7.14      10.78
C      -0.86       7.64       7.20
O      -3.05       4.32       9.92
O       1.33       4.79       7.22
O       0.27       7.22       7.58
O       1.33       4.32       9.92
O       0.27       6.83      10.31
O      -3.07       4.81       7.22
O       2.47       6.58       8.94
