18

Al       4.46      22.51       0.03
Al       1.11      22.52       0.02
H       6.12      24.15       0.67
H       2.78      21.10      -0.92
O       1.67      23.53       1.56
O       3.91      24.02      -1.06
O       4.97      21.60      -1.60
O       3.94      23.43       1.63
O       5.01      21.01       1.08
O       1.63      23.98      -1.14
O       2.79      21.73      -0.18
O       7.27      21.11       1.18
O       7.25      21.50      -1.53
O       6.12      23.32       0.16
C       2.78      24.40      -1.51
C       2.80      23.77       2.09
C       6.15      20.61       1.51
C       6.12      21.27      -2.06
