20

Zn       7.44       6.56      40.25
Zn       7.13       6.88      37.39
C       7.21       4.12      38.60
C       7.35       9.27      39.29
C       9.84       6.72      38.34
C       4.69       6.71      39.08
N       7.51       6.07      42.28
N       6.55       6.91      35.38
O       7.09       4.59      39.77
O       7.37       4.80      37.52
O       7.71       8.59      40.30
O       6.98       8.80      38.16
O       9.35       6.35      39.47
O       9.16       7.08      37.32
O       5.37       6.85      40.15
O       5.16       6.58      37.90
C       8.56       6.18      43.12
C       6.35       5.55      42.72
C       6.51       7.98      34.55
C       6.05       5.73      34.98
