12

C      10.81       7.76      15.71
H       8.92       9.20      11.70
C      12.49       9.80      13.75
Ni      10.51       8.05      12.89
C      10.45      10.85      13.44
N       9.83       8.86      11.35
N      11.10       7.21      14.50
N      11.18       9.72      13.45
C       9.50       6.47      10.94
C       9.56       7.86      10.32
O       9.99       6.43      12.17
C      11.78       6.04      14.49
