10

Al       0.01      -6.98      12.10
O       1.06      -6.12      10.74
O       1.06      -6.24      13.53
O       1.06      -8.59      12.03
O      -1.04      -5.41      11.79
O      -1.04      -8.04      10.88
O      -1.04      -7.51      13.61
C       1.99      -5.26      10.93
C       1.99      -6.84      14.17
C       1.99      -8.85      11.19
