19

Zn      10.50       2.08       3.56
N      11.71       0.58       2.21
C       9.70      -0.58       5.13
N       9.49       2.05       1.80
C       8.02       0.27       3.79
N       8.43       2.75       1.36
C      12.75      -0.21       2.47
N      11.68       3.79       2.82
C      11.21       0.58       0.95
C      10.04       1.42       0.73
C      12.79       4.12       3.49
C      11.22       4.65       1.88
C       8.14       4.29       4.50
N       9.19       3.52       4.82
C       9.58       3.50       6.11
N      11.42       2.10       5.38
C      10.75       2.68       6.40
N      12.44       1.39       5.90
N       9.26       0.40       4.31
