20

Zn       4.39       5.87       7.09
Zn       7.12       5.88       7.17
H      -0.05       5.87       8.07
H       1.84       6.75       7.46
C       5.86       8.48       6.87
C       5.62       3.30       7.24
C       5.87       5.75       4.48
C       1.61       5.26       6.23
C       0.14       5.36       6.19
C       5.67       6.16       9.74
N       2.35       6.03       6.93
N      -0.57       5.71       7.20
O       4.75       7.89       6.70
O       6.96       7.93       7.19
O       4.56       6.30       9.11
O       6.81       5.92       9.22
O       4.47       3.88       7.37
O       6.72       3.93       7.07
O       4.73       5.59       5.05
O       6.98       5.97       5.06
