20

Zn       8.19       8.44       7.51
Zn       7.66       5.64       7.70
C       8.06       7.27      10.18
C       9.39      11.09       6.75
C       8.35       2.84       7.24
C       7.67      11.22       8.30
C       5.38       7.57       7.64
C      10.49       6.50       7.56
C       7.87       6.83       5.05
C       6.32       2.96       8.36
N       7.39       3.58       7.83
N       8.44      10.48       7.48
O       8.45       8.31       9.55
O       7.94       5.72       5.66
O       7.63       6.19       9.65
O       7.79       7.98       5.58
O       6.12       8.58       7.86
O       9.78       5.49       7.86
O       5.76       6.37       7.42
O      10.09       7.67       7.27
