23

Zn       7.97      10.35      10.87
Zn      10.05      10.06       8.46
Zn       7.68       7.94       8.74
Zn      10.05       7.90      10.89
C      12.52       8.87       9.59
C       5.37       9.26      10.02
C       9.16      12.67       9.49
C       8.77       5.45       9.88
C       8.72       8.87       6.13
C       9.14       9.22      13.33
O       8.95       9.06       9.74
O       9.66       9.59       6.60
O       9.67       8.19      12.80
O       7.85       8.23       6.81
O       8.58      10.19      12.74
O       8.40      12.21      10.41
O       9.68       5.99      10.60
O      11.96       9.62       8.73
O       5.83       8.38       9.21
O      11.97       8.19      10.51
O       6.03      10.07      10.75
O       9.83      12.00       8.63
O       7.94       6.02       9.10
