14

Zn      10.07      32.41      10.49
C      10.81      31.88      13.24
Zn       8.56      33.47      12.33
O       8.81      33.29       9.17
C       7.82      30.83      11.41
C       7.82      33.99       9.58
O       8.82      30.82      10.60
O       7.49      31.76      12.22
O       9.82      35.05      12.22
C      10.81      35.05      11.41
O      11.14      34.12      10.60
O       7.49      34.23      10.79
O      11.14      31.65      12.03
O       9.82      32.58      13.65
