18

Zn       8.88       8.07       8.09
Zn       6.08       8.07       8.10
C      12.10       8.08       8.11
C       2.86       8.08       8.07
C       7.48      10.68       8.09
C       7.45       8.10       5.49
C       7.48       5.47       8.10
N       4.02       8.07       8.12
N      10.94       8.07       8.07
O       8.65       8.08      10.14
O       6.31       8.07       6.05
O       6.37       8.10      10.13
O       8.60       8.09       6.05
O       8.62      10.11       8.10
O       6.34       6.04       8.10
O       6.33      10.11       8.08
O       8.63       6.03       8.09
C       7.51       8.10      10.70
