20

Zn       5.20       5.86       8.75
Zn       5.20       8.67       8.89
C       5.19       7.41       6.20
C       2.57       7.21       8.81
C       5.21       7.17      11.43
C       7.83       7.23       8.82
C       4.38      11.44       8.16
C       6.05      11.36       9.77
C       6.04       3.09       9.43
C       4.36       3.17       7.84
N       5.21      10.72       8.94
N       5.20       3.82       8.66
O       5.19       6.26       6.73
O       5.18       8.52       6.84
O       3.16       8.34       8.93
O       3.13       6.08       8.70
O       5.22       8.34      10.91
O       5.21       6.07      10.78
O       7.27       6.10       8.72
O       7.24       8.36       8.93
