15

Cu       7.71       2.65       4.72
Cu       7.72       2.68       1.54
Cu       9.62       4.58       3.22
C       5.66       0.63       4.21
C       5.95       0.37       2.04
C      11.03       4.43       5.81
C       9.50       3.29       6.93
C       8.28       4.69      -0.51
C       9.38       6.13       0.75
N       6.72       1.40       2.44
N       6.54       1.56       3.79
N       9.03       3.51       5.69
N       9.97       4.22       4.99
N       9.23       4.99       1.46
N       8.54       4.09       0.68
