18

Al       6.40       7.89       8.71
Al       3.04       7.89       8.71
H       4.71       6.60       9.92
H       8.08       9.19       7.49
O       6.91       6.05       8.46
O       2.54       8.09      10.57
C       8.04       5.48       8.56
C       8.10       8.02      11.12
C       4.75      10.31       8.85
C       4.70       7.77       6.29
O       9.16       6.07       8.72
O       3.63       9.72       8.69
O       4.72       7.31       9.27
O       8.08       8.48       8.14
O       5.80       7.96       6.90
O       5.89       9.74       8.95
O       3.55       7.70       6.84
O       7.00       7.83      10.51
