18

Zn       8.01       5.88       8.09
Zn       8.33       8.68       8.10
N       8.77      10.69       8.11
N       7.57       3.87       8.09
O       8.05       6.14      10.13
C       8.15       7.28      10.70
O       8.30       8.42       6.06
C       7.37       2.73       8.09
C       8.98      11.83       8.11
C      10.74       6.85       8.12
C       5.60       7.72       8.08
O       8.27       8.42      10.14
O       8.08       6.15       6.06
O      10.07       5.76       8.11
O       6.27       8.80       8.08
O      10.29       8.04       8.12
C       8.19       7.28       5.49
O       6.06       6.53       8.08
