20

Zn      24.18       9.51      16.60
Zn      22.63       7.77      18.19
C      23.01      10.74      18.89
C      23.90       6.63      15.77
C      25.44      10.30      14.06
C      26.36      11.42      15.86
N      25.46      10.55      15.38
N      21.35       6.77      19.43
O      23.92      10.97      18.02
O      22.36       9.65      19.01
C      21.29       9.28      15.99
O      23.33       6.34      16.87
O      24.20       7.81      15.37
O      21.19       8.28      16.79
O      22.35       9.93      15.76
O      24.33       7.47      19.33
O      25.58       8.59      17.80
C      25.44       7.87      18.84
C      20.02       6.82      19.20
C      21.81       6.10      20.50
