23

Zn      18.42       7.29       8.86
Zn      16.90       4.43       8.67
Zn      18.63       5.50       6.18
Zn      20.10       4.55       8.85
O      18.50       5.45       8.15
O      16.76       7.58       9.89
O      15.88       3.78       7.12
O      18.60       7.34       5.52
O      15.70       5.55       9.75
O      18.45       8.62       7.41
O      17.12       4.55       5.38
O      20.26       4.66       5.51
O      21.10       5.75      10.03
C      15.80       6.76      10.13
C      16.12       3.93       5.88
C      18.52       8.45       6.14
O      17.36       2.85       9.75
C      20.90       6.95      10.39
C      18.51       2.43      10.13
O      19.64       2.95       9.88
O      19.93       7.70      10.05
O      21.32       3.99       7.42
C      21.22       4.11       6.16
