19

Ga       1.08       7.03       1.52
N       1.64       9.01       1.18
N       2.00       6.69      -0.33
N       0.74       4.99       1.44
P       3.71       6.89       3.64
P      -0.78       6.89       4.15
P      -1.61       8.55       0.63
O       2.92       6.81       2.35
O       0.36       7.43       3.26
O      -0.60       7.37       0.53
H       0.76       9.57       1.26
H       2.31       9.28       1.90
H       1.29       6.77      -1.06
H       1.16       4.55       2.27
H      -0.27       4.83       1.45
C       2.24       9.10      -0.17
C       2.97       7.79      -0.50
C       2.49       5.31      -0.27
C       1.32       4.43       0.18
