54

Cd      -0.00       1.58       5.42
Cd      -1.37      -0.79      12.65
Cd       1.37      -0.79      -1.81
Cd       0.00      -1.58      16.27
Cd       1.37       0.79       1.81
Cd      -1.37       0.79       9.04
C      -3.07       0.85       5.02
C      -3.92       0.85       7.05
C       0.80      -3.08      12.25
C       1.22      -3.82      14.28
C       2.27       2.23      -2.21
C       2.69       2.97      -0.18
C       3.07      -0.85      -5.83
C       3.92      -0.85      -3.79
C      -0.80       3.08       1.40
C      -1.22       3.82       3.44
C      -2.27      -2.23       8.63
C      -2.69      -2.97      10.67
C       2.27      -2.23       2.21
C       2.69      -2.97       0.18
C      -3.07      -0.85      16.67
C      -3.92      -0.85      14.64
C       0.80       3.08       9.44
C       1.22       3.82       7.41
C      -2.27       2.23      13.06
C      -2.69       2.97      11.02
C       3.07       0.85       5.83
C       3.92       0.85       3.79
C      -0.80      -3.08      -1.40
C      -1.22      -3.82      -3.44
N      -2.05       0.86       5.90
N      -2.57       0.87       7.16
N       0.28      -2.20      13.13
N       0.53      -2.67      14.39
N       1.77       1.34      -1.33
N       2.04       1.79      -0.07
N       2.05      -0.86      -4.94
N       2.57      -0.87      -3.69
N      -0.28       2.20       2.28
N      -0.53       2.67       3.54
N      -1.77      -1.34       9.51
N      -2.04      -1.79      10.77
N       1.77      -1.34       1.33
N       2.04      -1.79       0.07
N      -2.05      -0.86      15.79
N      -2.57      -0.87      14.53
N       0.28       2.20       8.56
N       0.53       2.67       7.30
N      -1.77       1.34      12.18
N      -2.04       1.79      10.92
N       2.05       0.86       4.94
N       2.57       0.87       3.69
N      -0.28      -2.20      -2.28
N      -0.53      -2.67      -3.54
