23

Zn      16.66      16.90      12.04
Zn      19.86      16.90      12.04
Zn      18.26      15.90       9.46
Zn      18.26      14.10      12.11
C      15.72      17.44       9.31
C      20.79      17.44       9.31
C      20.81      14.52      13.55
C      15.71      14.52      13.55
C      18.26      18.90      13.52
C      18.26      12.96       9.37
O      16.67      16.79       8.74
O      19.85      16.79       8.74
O      19.85      13.74      13.21
O      16.67      13.74      13.21
O      18.26      15.94      11.42
O      15.57      15.73      13.17
O      20.95      15.73      13.17
O      20.93      17.61      10.57
O      15.58      17.61      10.57
O      17.12      18.43      13.18
O      19.40      18.43      13.18
O      18.26      14.08       8.76
O      18.26      12.79      10.64
