14

Zn       8.29       0.50       0.92
Zn      10.01      -0.54      -0.89
C      10.86      -1.24       1.52
C       7.42      -1.90       0.42
C       8.00       0.53      -2.22
O       7.03      -0.97       1.22
O       7.63       0.82      -1.05
C      10.19       2.30       0.34
O       9.11       2.27       1.05
O      11.20      -1.52       0.31
O       8.44      -1.81      -0.33
O       9.10      -0.05      -2.55
O      10.63       1.34      -0.37
O       9.93      -0.45       1.87
