14

Zn       2.14      13.71      15.14
Zn       4.84      13.80      15.15
C       3.92      16.29      15.15
C       2.98      13.75      17.67
C       4.06      11.24      15.14
C       2.99      13.76      12.62
O       2.83      15.64      15.15
O       5.10      15.75      15.15
O       4.10      13.76      17.05
O       1.83      13.72      17.09
O       5.19      11.85      15.15
O       2.91      11.81      15.14
O       1.83      13.73      13.19
O       4.10      13.77      13.24
