14

Zn       9.94      -0.20      14.38
Zn       8.18       0.73      16.26
C       7.13       1.04      13.85
O      10.65      -0.54      16.31
O       9.15       0.22      17.84
C       8.40      -2.22      14.98
C      10.64       2.30      15.05
O      10.99       1.42      14.17
O       9.63       2.21      15.80
C      10.24      -0.36      17.51
O       8.26       0.58      13.52
O       6.78       1.32      15.07
O       9.39      -2.07      14.18
O       7.86      -1.33      15.69
