54

Zr      17.15       6.65      14.19
Zr      20.65       4.60      17.10
Zr      17.11       4.62      17.08
Zr      20.69       6.63      14.22
Zr      18.90       7.67      17.09
Zr      18.90       3.58      14.20
H      16.10       7.25      16.75
H      21.69       7.21      16.81
H      18.87       2.41      16.79
H      18.92       5.62      12.23
O      16.46       8.71      14.65
O      21.34       5.72      18.89
O      21.43       2.59      16.56
O      16.36       5.47      12.48
O      14.99       4.93      16.51
O      20.08       7.93      12.51
O      22.81       6.20      14.70
O      17.72       3.44      18.87
O      17.56       7.72      18.85
O      17.46       1.95      14.67
O      20.34       3.48      12.51
O      20.24       9.35      16.55
O      16.29       2.61      16.51
O      21.51       5.43      12.51
O      21.40       8.72      14.70
O      16.40       5.76      18.88
O      15.01       6.23      14.64
O      19.99       3.43      18.89
O      22.79       4.88      16.55
O      17.81       7.95      12.49
O      17.47       3.48      12.49
O      17.59       9.38      16.51
O      20.21       7.70      18.90
O      20.32       1.94      14.68
O      18.92       5.62      13.20
O      18.88       3.32      16.46
O      20.89       6.77      16.48
O      16.90       6.79      16.45
C      16.77       9.57      15.55
O      18.92       7.32      15.05
O      18.88       5.63      17.44
O      17.43       4.78      15.04
C      16.60       4.29      12.04
C      14.42       5.51      15.52
C      18.95       8.30      12.05
C      18.85       3.13      19.37
C      16.73       6.90      19.36
C      16.56       1.80      15.57
O      20.37       4.77      15.06
C      21.20       1.78      15.60
C      23.37       5.46      15.58
C      21.24       4.27      12.07
C      21.07       9.55      15.60
C      21.02       6.85      19.40
