23

Zn       3.99      10.31      10.20
O       2.31       9.30      10.03
Zn       2.42      11.81       7.81
O       5.47       9.10       9.71
Zn       5.61      11.95       7.95
O       1.21      13.33       8.11
Zn       3.86      13.50      10.18
C       4.13      11.89       5.42
C       6.44      14.49       9.17
C       1.46       9.34       9.08
C       3.98      11.91      12.64
C       6.51       9.36       9.02
C       1.36      14.35       8.86
O       3.97      11.89       9.03
O       5.24      11.90       6.03
O       3.69      13.01      12.07
O       4.22      10.79      12.09
O       2.96      11.81       5.93
O       6.77      10.41       8.36
O       2.31      14.59       9.67
O       6.65      13.56       8.33
O       5.47      14.62       9.98
O       1.40      10.16       8.11
