23

Zn      17.67       4.98      31.98
Zn      14.45       4.87      31.80
Zn      16.14       2.16      31.80
Zn      15.99       3.93      34.48
C      16.06       6.99      30.52
C      13.65       2.49      30.25
C      18.76       2.66      30.52
C      16.06       0.98      34.51
C      18.48       5.50      34.77
O      16.06       3.99      32.52
O      17.20       6.55      30.89
O      13.43       3.69      30.61
O      17.80       1.86      30.78
O      14.91       6.49      30.79
O      18.88       3.88      30.88
O      14.63       1.76      30.61
O      16.13       0.82      33.24
O      17.49       4.88      35.30
O      15.99       2.08      35.15
O      18.70       5.63      33.52
O      13.25       5.45      33.24
O      14.33       4.76      35.14
C      13.36       5.32      34.51
