14

O      15.35       7.74       0.61
O      18.89       9.93      -1.14
O      15.96       9.62      -1.62
Zn      16.04       9.69       1.11
Zn      17.56       8.55      -0.91
C      15.00      10.35      -1.22
O      16.99       9.11       2.71
C      17.96       8.40       2.28
C      15.70       6.81      -0.19
C      18.63      10.90      -0.33
O      14.75      10.64       0.01
O      18.22       8.16       1.07
O      16.68       6.84      -1.02
O      17.62      11.00       0.44
