11

C       0.32      12.60       7.74
C      -2.26      14.27       3.58
Zn       0.01      12.82       4.94
O       1.51      13.21       3.70
N      -0.67      11.02       4.30
C      -1.74      10.40       4.81
C       2.16      14.28       4.05
C      -0.01      10.09       3.52
C      -2.13      14.78       5.69
O       0.95      12.28       6.62
N      -1.54      14.05       4.73
