18

Cd       4.85       7.63       0.94
O       6.47       8.86       2.08
Cd       4.73       4.66      -0.94
O       3.20       8.12      -0.54
O       6.37       4.16       0.54
O       3.47       6.34      -1.95
O       6.10       5.95       1.95
O       6.35       5.55      -2.31
C       6.69       6.70      -1.90
O       3.22       6.74       2.31
C       2.89       5.58       1.90
O       6.30       7.31      -0.86
C       3.67       2.30      -1.93
O       3.27       4.98       0.86
C       5.90       9.99       1.93
C       2.93       7.41      -1.55
C       6.64       4.88       1.55
O       3.10       3.43      -2.08
