20

Zn       5.62       1.38       0.00
Zn       5.62      -1.38      -0.00
C       3.81       0.00       1.91
C       7.42       0.00       1.91
C       7.42       0.00      -1.91
C       3.81       0.00      -1.91
C       4.46       4.12       0.00
C       6.78      -4.12      -0.00
C       6.78       4.12      -0.00
C       4.46      -4.12       0.00
N       5.62       3.44       0.00
N       5.62      -3.44       0.00
O       4.17       1.13       1.45
O       7.06      -1.13       1.45
O       7.06       1.13      -1.45
O       4.17      -1.13      -1.45
O       7.06      -1.13      -1.45
O       4.17       1.13      -1.45
O       4.17      -1.13       1.45
O       7.06       1.13       1.45
