14

Zn      -3.83      -3.63       8.79
Zn      -2.27      -4.75       6.88
C      -2.06      -1.83       8.03
O      -5.13      -5.08       8.95
O      -3.75      -6.06       7.43
O      -4.47      -3.33       6.81
C      -1.27      -5.34       9.28
O      -3.06      -4.06       5.21
O      -3.02      -1.85       8.89
O      -1.65      -2.85       7.39
O      -2.31      -4.72       9.66
O      -0.91      -5.54       8.06
C      -4.09      -3.38       5.61
C      -4.81      -6.03       8.14
