24

Al      11.83       8.97      14.11
Al      13.55       6.26      14.14
Al      15.04       8.86      14.14
H      10.03      10.28      14.88
C      13.73      10.42      16.00
C      11.59       6.66      16.06
C      15.69       6.73      15.96
C      13.71      10.39      12.25
C      11.58       6.62      12.24
C      15.71       6.78      12.32
O      11.28       7.80      15.62
O      11.22       7.73      12.72
O      14.90       5.94      12.82
O      14.84      10.17      12.84
O      12.57      10.06      12.66
O      14.87       5.90      15.46
O      12.37       5.76      12.80
O      16.02       7.92      12.82
O      13.49       8.02      14.14
O      14.87      10.13      15.48
O      12.59      10.17      15.51
O      12.34       5.79      15.47
O      16.01       7.87      15.45
O      10.30       9.81      14.08
