23

Zn       3.93       7.85       8.79
Zn       5.15       4.99       9.34
Zn       3.27       6.35      11.50
Zn       2.04       5.29       8.80
O       3.60       6.12       9.61
O       5.72       7.96       8.00
O       5.97       4.48      11.05
O       3.43       8.23      12.04
O       6.55       5.88       8.29
O       3.76       9.31      10.08
O       4.54       5.32      12.59
O       1.47       5.75      12.02
C       6.66       7.09       7.84
C       5.60       4.65      12.28
O       2.65       8.20       7.34
C       3.60       9.32      11.36
O       4.69       3.32       8.41
C       1.60       7.58       6.94
C       3.60       2.92       7.85
C       0.53       5.15      11.37
O       1.23       6.46       7.45
O       0.65       4.88      10.11
O       2.51       3.61       7.89
