14

O       2.99       4.26       5.20
O       1.74       5.33       6.77
Zn       3.94       3.74       6.81
O       2.28       2.61       7.59
O       5.12       2.85       8.06
Zn       2.38       4.94       8.78
O       0.92       3.68       9.04
C       1.98       4.96       5.58
O       3.92       3.91       9.70
C       1.19       2.71       8.23
C       4.83       3.13       9.28
C       4.12       6.71       7.90
O       4.57       5.69       7.30
O       3.20       6.70       8.80
