20

Zn       6.82       5.48      14.16
Zn       6.55       8.26      14.28
C       6.74       6.78      16.79
C       4.11       6.69      14.31
C       6.69       6.96      11.65
C       9.26       7.07      14.11
C       5.91       2.84      14.92
C       7.62       2.74      13.33
C       7.41      10.91      13.46
C       5.69      11.01      15.03
N       6.81       3.45      14.12
N       6.53      10.30      14.26
O       6.48       5.68      16.18
O       7.00       7.89      16.22
O       4.58       7.79      14.73
O       4.76       5.70      13.86
O       6.15       7.92      12.28
O       7.16       5.89      12.15
O       8.79       5.95      14.49
O       8.57       8.08      13.74
