18

Al       0.99       6.05       9.78
Al       4.35       6.04       9.78
O       2.67       5.25       9.66
O       4.88       5.07       8.20
O       4.89       4.56      10.89
O      -0.68       6.83       9.92
H       2.67       4.31       9.86
H      -0.69       7.79      10.04
C       2.68       7.33      11.84
C       2.67       7.94       8.29
C      -0.68       4.78       7.72
C      -0.67       4.14      11.27
O       3.81       7.51       8.66
O       1.53       7.07      11.35
O       0.46       4.59      10.92
O       1.53       7.49       8.64
O       0.46       5.05       8.22
O       3.82       7.04      11.35
