10

Al       3.79       4.02       6.97
O       4.84       3.04       5.70
O       4.85       3.40       8.44
O       4.85       5.59       6.77
O       2.72       2.44       6.77
O       2.73       4.97       5.71
O       2.74       4.63       8.45
C       5.80       4.02       9.01
C       5.80       2.25       5.94
C       5.80       5.79       5.94
