35

Mg       5.30      12.99       8.33
N       2.05      15.74       8.23
H       2.63      14.26       6.93
N       8.55      11.70       5.90
O       6.13      14.81       7.53
O       7.02      12.06       7.57
H       9.43       9.81       5.93
O       4.46      12.77       6.35
O       3.57      14.11       8.76
H       4.13      11.73       6.49
H       2.68      15.75      10.21
O       6.11      13.44      10.12
H       1.24      15.78       6.30
O       4.48      11.21       8.83
H       7.84       9.89       5.09
H       7.91       9.98       6.87
H       9.36      13.36       4.90
H       0.20      16.49       7.56
H       2.76      17.35       9.39
H       1.64      17.37       6.97
H      10.39      11.90       4.91
H       7.96      13.56       6.54
H       8.95      11.98       3.85
H       6.47      15.21       8.50
H       1.17      16.66       9.88
C       6.67      14.50      10.52
C       2.17      16.42       9.51
C       5.15      12.93       5.19
C       2.78      14.65       7.95
C       7.82      12.48       6.70
C       1.24      16.38       7.21
C       8.42      10.25       5.95
C       5.44      15.74       6.81
C       3.92      10.33       8.11
C       9.36      12.26       4.83
