18

Al       6.40       6.72      16.68
O       9.23       4.90      16.01
Al       9.73       6.66      16.65
O       9.10       7.49      15.03
O       8.07       6.87      17.47
H       4.79       5.66      15.27
H       8.08       6.65      18.41
C       4.67       8.80      17.79
C       4.79       5.35      18.69
O      10.32       5.83      18.33
C       8.09       4.54      15.57
O       5.79       8.21      17.68
C       8.01       8.06      14.70
O       6.88       7.94      15.28
O       5.93       5.54      18.16
O       7.02       5.23      15.61
O      10.22       8.38      17.29
O       4.74       6.41      15.88
