20

Zn      12.23       7.53       7.45
Zn       9.44       6.94       7.84
C      11.34       4.72       7.42
C      11.40       6.97      10.21
C      10.03       9.62       8.26
C       7.27       6.15       9.59
C       6.30       6.83       7.60
C      10.56       7.69       5.11
C      14.28       9.31       6.25
C      15.15       7.88       7.87
N       7.38       6.45       8.28
N      14.10       8.37       7.22
O      12.34       5.50       7.23
O      10.12       5.08       7.53
O      12.43       7.20       9.50
O      10.21       6.77       9.80
O      11.19       9.23       7.89
O       9.00       8.89       8.35
O      11.79       7.80       5.43
O       9.59       7.48       5.90
