23

Zn      22.41       7.84       0.54
Zn      23.93      10.66       0.71
Zn      25.63       7.96       0.72
Zn      24.09       8.89      -1.97
C      21.32      10.17       2.00
C      26.42      10.34       2.28
C      24.01       5.82       1.99
C      26.71       7.51      -2.00
C      21.59       7.35      -2.27
C      24.03      11.85      -1.99
O      24.02       8.84      -0.00
O      21.22       8.94       1.64
O      25.42      11.05       1.92
O      25.15       6.34       1.73
O      22.27      10.97       1.72
O      22.87       6.26       1.61
O      26.64       9.13       1.92
O      26.83       7.39      -0.73
O      22.58       7.96      -2.80
O      25.75       8.05      -2.64
O      21.38       7.23      -1.01
O      23.96      12.01      -0.73
O      24.09      10.74      -2.63
