10

Al       0.56      20.84      20.08
O       1.63      22.12      19.17
O       1.63      19.40      19.43
O       1.62      21.01      21.69
O      -0.49      21.09      18.49
O      -0.50      22.07      21.07
O      -0.48      19.33      20.66
C       2.56      21.91      18.33
C       2.56      18.79      20.03
C       2.56      21.85      21.87
