13

Cu      -1.50      -3.93       6.80
C      -1.22      -6.75       5.84
N       0.71      -3.17       8.63
N      -3.72      -4.68       4.97
C       1.20      -2.84       6.53
C      -3.03      -1.56       5.87
C       0.03      -6.29       7.74
C      -4.20      -5.02       7.08
N      -3.28      -4.51       6.22
N      -2.13      -1.96       6.79
N      -0.88      -5.90       6.82
N       0.27      -3.35       7.38
C      -1.78      -1.10       7.77
