20

Zn       5.27       5.67       8.56
Zn       5.23       8.64       8.68
C       5.34       7.25       6.02
C       2.62       7.29       8.58
C       5.16       7.11      11.24
C       7.90       7.11       8.80
C       4.52      11.37       7.90
C       6.20      11.35       9.55
C       6.12       2.85       9.18
C       4.22       2.94       7.80
N       5.40      10.68       8.70
N       5.18       3.59       8.52
O       5.36       6.09       6.58
O       5.34       8.35       6.68
O       3.16       8.43       8.64
O       3.22       6.18       8.43
O       5.06       8.26      10.68
O       5.26       6.03      10.55
O       7.38       5.97       8.58
O       7.27       8.20       8.95
