10

Al       0.03       6.16       3.55
O       1.08       5.57       2.07
O       1.08       7.74       3.78
O       1.08       5.17       4.81
O      -1.01       6.84       2.10
O      -1.01       4.56       3.69
O      -1.01       7.08       4.88
C       2.01       7.90       4.65
C       2.01       4.34       4.52
C       2.01       6.23       1.50
