23

O       6.06      -2.21      25.33
O       5.52      -3.92      26.74
O       2.97      -5.69      26.38
O       1.43      -5.14      24.80
Zn       1.41      -3.17      24.72
Zn       2.19      -1.03      26.99
Zn       4.28      -1.76      24.68
Zn       3.56      -3.92      26.97
O       3.96      -2.19      22.79
O       1.75      -2.77      22.83
C      -0.59      -1.71      26.26
O       2.38      -1.44      28.89
O       3.27      -3.54      28.88
C       6.33      -3.06      26.26
C       2.22      -5.95      25.38
C       2.85      -2.48      22.23
C       2.80      -2.51      29.47
C       3.42       1.01      25.36
O       2.86      -2.47      25.85
O      -0.34      -2.57      25.34
O       0.25      -0.85      26.71
O       2.89       0.73      26.49
O       4.14       0.21      24.67
