24

Al       7.94      10.76      27.24
Al       4.73      10.79      27.18
Al       6.17      13.43      27.24
O       8.38      11.85      28.83
O       4.88       9.46      28.45
O       4.88      13.73      28.61
O       8.59      12.08      25.99
O       5.02       9.59      25.78
O       4.79      13.75      25.96
O       7.28       9.77      25.70
O       3.73      11.75      25.91
O       7.29      13.93      25.86
O       6.25      11.67      27.24
O       7.15       9.49      28.56
O       3.79      11.73      28.57
O       7.41      13.90      28.55
H       9.71       9.44      28.03
O       9.49       9.93      27.23
C       6.16       9.49      25.18
C       4.07      12.87      25.38
C       8.14      13.08      25.37
C       6.01       9.23      29.03
C       4.11      12.84      29.11
C       8.07      13.01      29.22
