15

Cu      19.47      20.47      23.70
Cu      22.29      20.89      22.44
Cu      19.78      22.43      21.23
N      22.10      19.65      23.80
N      20.83      19.34      24.22
N      18.16      21.73      23.36
N      18.23      22.51      22.23
N      21.42      22.57      20.39
N      22.52      22.08      21.05
C      20.93      18.38      25.16
C      22.97      18.90      24.50
C      17.32      23.50      22.36
C      17.22      22.25      24.17
C      23.62      22.63      20.50
C      21.86      23.41      19.42
