15

Cu       6.98       6.91      13.10
Cu       5.05       9.35      12.48
Cu       4.05       6.92      14.30
N       6.75       9.36      11.78
N       7.59       8.29      12.05
C       8.77       8.52      11.44
N       6.43       5.49      14.15
N       5.16       5.49      14.67
C       7.42      10.23      11.01
N       3.34       9.38      13.18
C       7.06       4.38      14.55
C       2.34      10.27      13.08
N       2.91       8.33      13.96
C       5.01       4.37      15.40
C       1.64       8.58      14.34
