14

Zn      28.88      12.94      12.94
O      30.97      14.67      14.68
O      26.84      13.03      13.04
O      26.89      14.65      14.66
Zn      28.93      14.76      14.77
C      28.91      15.67      12.03
C      28.91      12.03      15.68
O      28.87      11.64      14.46
O      28.95      16.06      13.25
C      31.52      13.85      13.86
O      28.87      14.45      11.64
C      26.30      13.85      13.85
O      28.95      13.25      16.07
O      30.93      13.05      13.05
