23

Zn       7.98      10.17      10.96
Zn      10.05      10.14       8.52
Zn       8.03       7.79       8.74
Zn      10.30       7.97      10.97
C      12.60       8.93       9.36
C       5.56       9.05       9.66
C       9.11      12.63       9.76
C       9.05       5.42      10.15
C       9.05       8.75       6.23
C       9.28       9.22      13.43
O       9.10       9.02       9.83
O       9.23       9.91       6.75
O      10.01       8.35      12.86
O       8.86       7.68       6.94
O       8.47      10.03      12.84
O       8.23      12.09      10.51
O      10.00       6.01      10.76
O      11.95       9.61       8.51
O       6.15       8.33       8.78
O      12.16       8.32      10.39
O       6.10       9.73      10.59
O       9.94      12.05       8.98
O       8.15       5.94       9.41
