15

N      13.35      11.25      19.58
N      13.59      12.25      20.51
C      13.71      13.42      19.86
N      14.59      11.29      23.92
C      13.38      11.81      18.35
N      14.43       9.96      24.29
C      15.25       9.70      25.31
C      15.48      11.85      24.74
C      10.98       7.17      22.75
Cu      12.71       9.66      20.25
Cu      13.17       9.01      23.32
Cu      13.96      11.78      22.25
N      11.86       8.20      21.00
N      11.91       8.07      22.37
C      10.92       7.36      20.53
