15

N      27.34      14.46      30.99
N      27.88      15.02      29.86
N      30.68      13.34      28.15
N      31.04      12.07      28.54
N      29.58      10.60      31.60
N      28.35      11.06      32.00
Cu      29.29      14.17      29.02
Cu      27.83      12.75      31.46
Cu      30.33      11.38      30.10
C      27.31      16.23      29.67
C      26.46      15.34      31.51
C      31.90      11.58      27.64
C      31.35      13.63      27.01
C      27.85      10.18      32.89
C      29.86       9.47      32.27
