23

Zn      18.63       1.80       0.78
Zn      16.92      -0.92       0.57
Zn      20.14      -0.99       0.62
Zn      18.62       0.12      -1.97
C      16.03       1.37       2.16
C      18.52      -3.05       1.92
C      21.14       1.35       2.17
C      21.13      -1.37      -2.15
C      18.60       3.06      -1.91
C      16.03      -1.35      -2.18
O      18.56      -0.00      -0.01
O      17.03       2.09       1.88
O      17.40      -2.54       1.60
O      21.24       0.14       1.78
O      15.80       0.18       1.76
O      20.20       2.16       1.89
O      19.69      -2.60       1.64
O      21.23      -1.55      -0.90
O      18.61       1.99      -2.60
O      20.20      -0.75      -2.77
O      18.61       3.15      -0.64
O      15.80      -1.51      -0.93
O      17.03      -0.76      -2.70
