32

Zn      15.55      12.00      12.31
Zn      12.17      12.80      13.12
Zn      19.11      12.29      12.02
Zn      22.48      13.10      12.82
C      13.86      10.77      14.34
C      20.79      14.33      10.79
C      17.33      13.76      13.78
C      10.40      11.33      11.35
N      20.13      11.41      13.46
N      11.08      14.08      14.17
N      21.46      11.65      13.70
N      16.64      10.95      11.03
N      14.52      13.45      11.43
N       9.71      14.14      14.10
N      13.20      13.68      11.67
N      18.01      11.01      10.97
O      14.60      10.58      13.31
O      16.47      12.81      13.88
O      13.12      11.80      14.53
O      11.25      11.23      12.30
O      20.06      13.30      10.60
O      18.18      13.86      12.83
O      21.53      14.51      11.82
O       9.54      12.28      11.25
C      19.70      10.44      14.30
C      11.51      14.97      15.08
C      21.88      10.81      14.67
C      16.21      10.04      10.14
C      14.95      14.29      10.46
C       9.28      15.05      15.00
C      12.77      14.66      10.84
C      18.44      10.12      10.05
