18

Al       1.39       5.84      17.25
O       4.18       4.67      18.60
O       0.87       7.03      15.84
Al       4.71       5.86      17.19
O       1.91       4.59      15.89
H       3.06       7.45      17.83
O      -1.41       7.11      18.55
H      -0.26       4.25      16.61
O       1.94       4.62      18.62
C       3.03       4.21      15.43
O      -1.38       7.08      15.82
C      -0.28       7.49      19.01
O       0.87       7.09      18.61
C       3.08       4.29      19.12
O       4.18       4.61      15.83
C      -0.24       7.41      15.32
O       3.05       6.70      17.22
O      -0.27       5.00      17.22
