23

Zn      -5.43      -3.14      10.84
Zn      -8.64      -3.14      10.83
Zn      -7.04      -4.06      13.45
Zn      -7.04      -5.91      10.84
O      -7.04      -4.06      11.49
O      -5.90      -1.58       9.73
O      -9.76      -2.49      12.31
O      -5.46      -3.15      14.18
O      -8.17      -1.58       9.73
O      -4.32      -2.49      12.32
O      -8.62      -3.15      14.18
O      -7.04      -5.89      14.18
C      -7.04      -1.11       9.40
C      -9.60      -2.58      13.58
O      -4.32      -4.32       9.73
C      -4.48      -2.59      13.58
C      -4.48      -5.54       9.40
O      -9.76      -4.32       9.73
C      -9.60      -5.54       9.40
C      -7.04      -7.02      13.58
O      -5.46      -6.29       9.73
O      -7.04      -7.20      12.32
O      -8.62      -6.29       9.73
