20

Zn       7.23       5.59       8.71
Zn       4.37       5.66       8.83
C       5.83       3.02       8.57
C       5.95       5.44      11.35
C       5.74       8.22       8.83
C       5.79       5.65       6.20
C      11.35       4.62       9.28
C      11.51       6.66       8.34
C      10.11       6.74       8.24
C       9.96       4.72       9.21
N      12.16       5.59       8.86
N       9.30       5.75       8.69
O       6.98       3.53       8.43
O       4.76       3.63       8.88
O       7.04       5.28      10.74
O       4.83       5.74      10.82
O       6.81       7.55       9.03
O       4.57       7.74       8.68
O       6.95       5.83       6.69
O       4.69       5.59       6.82
