14

C      -0.65      13.88       1.79
Cu      -1.27      11.80      -0.00
O      -3.85      12.78       1.39
Cu      -2.82      13.72      -0.00
O      -2.41      11.00       1.39
C      -3.45      11.64       1.79
O      -0.24      12.74       1.39
O      -1.68      14.51       1.39
C      -3.45      11.64      -1.79
O      -0.24      12.74      -1.39
O      -1.68      14.51      -1.39
C      -0.65      13.88      -1.79
O      -3.85      12.78      -1.39
O      -2.41      11.00      -1.39
