19

N      -3.32       7.97      10.08
Zn      -4.57       6.29      10.83
N      -5.77       7.79      12.18
C      -3.77       8.95       9.26
N      -3.56       6.32      12.59
C      -2.09       8.10      10.60
N      -2.50       5.62      13.03
C      -6.82       8.59      11.92
N      -5.74       4.58      11.57
C      -5.27       7.79      13.44
C      -4.11       6.95      13.66
C      -6.86       4.25      10.90
C      -5.29       3.73      12.51
C      -2.20       4.08       9.89
N      -3.25       4.85       9.57
C      -3.65       4.87       8.27
N      -5.49       6.27       9.01
C      -4.81       5.69       7.99
N      -6.50       6.98       8.49
