36

Zn       9.30       8.08       1.61
Zn       6.82      10.26       1.61
Zn       6.60       9.98      -1.79
Zn       9.06       7.82      -1.79
C      12.23       7.55       0.72
C       5.92      13.09       0.72
C       7.49       5.43      -0.92
C       4.43       8.13      -0.92
C       4.53       8.37       1.28
C       7.72       5.56       1.28
C       5.47      12.85      -1.43
C      12.05       7.06      -1.43
C      10.58      10.35      -2.25
C       8.92      11.82      -2.25
C       8.79      11.65       3.30
C      10.42      10.21       3.30
C       8.04       7.47       4.50
C       6.38       8.94       4.50
C       5.70       8.14      -4.00
C       7.35       6.69      -4.00
N      10.92       7.57       0.40
N       6.11      11.80       0.40
N       5.82      11.66      -0.94
N      10.81       7.26      -0.94
N       9.50       9.77      -1.70
N       8.48      10.67      -1.70
N       8.69      10.94       2.16
N       9.73      10.02       2.16
N       8.06       8.13       3.33
N       7.02       9.04       3.33
N       6.74       8.71      -3.38
N       7.78       7.80      -3.38
N       7.93       6.66      -0.61
N       5.59       8.72      -0.61
N       5.66       8.87       0.74
N       8.07       6.74       0.74
