188

Ni       9.80       9.87       1.07
Ni      12.41      10.79       2.27
Ni       3.96       8.33      -1.07
Ni       6.57       7.40      -2.27
Ni      12.73      10.17      -0.77
Ni      15.33      11.37      -1.69
Ni       6.88       8.03       0.77
Ni       9.49       6.83       1.69
Ni      16.49      17.43      10.17
Ni      13.88      16.50      -6.83
Ni      10.65      18.96       8.03
Ni       8.04       1.70       6.83
Ni      13.57      17.13       8.33
Ni      10.96      15.93       7.40
Ni       7.73       1.07       9.87
Ni       5.12       2.27      -7.40
Ni      11.69      13.52       4.67
Ni       5.84       4.67      -4.67
Ni      14.61      13.77      -4.42
Ni       8.76       4.42       4.42
H      12.62      10.29       4.73
H      14.14      10.10       4.27
H      10.40      15.12       2.97
H       9.72      15.20       4.49
H       8.15       8.96       2.70
H       6.78       7.91      -4.73
H       8.30       8.10      -4.27
H       4.56       3.08      -2.97
H       3.88       3.00      -4.49
H      14.00       9.24      -2.70
H      15.54      13.83      -1.19
H      17.07      13.37      -1.00
H      13.32      12.07      -6.02
H      12.64      13.59      -6.10
H      11.08      11.80       0.14
H       9.70       4.37       1.19
H      11.22       4.83       1.00
H       7.48       6.13       6.02
H       6.80       4.61       6.10
H       5.23       6.39      -0.14
H      13.68      17.01      -4.37
H      12.15      17.20      -4.83
H      15.89      12.18      -6.13
H      16.57      12.09      -4.61
H       6.45       0.14      -6.39
H       7.83       1.19       4.37
H       6.31       1.00       4.83
H      10.05       6.02       6.13
H      10.73       6.10       4.61
H      12.30      18.06       6.39
H      10.75      13.47       7.91
H       9.23      13.93       8.10
H      12.97      15.22       3.08
H      13.65      13.71       3.00
H      15.22      15.49       9.24
H       4.91       4.73      -7.91
H       3.39       4.27      -8.10
H       7.13       2.97      -3.08
H       7.81       4.49      -3.00
H       9.38       2.70       8.96
C      11.53       8.29       3.14
C      12.93       8.45       3.77
C      14.03       8.30       1.40
C       9.88      12.30       2.83
C       9.15      13.53       3.38
C       8.97      12.88       5.90
C       5.69       9.90      -3.14
C       7.08       9.74      -3.77
C       8.18       9.89      -1.40
C       4.04       5.90      -2.83
C       3.30       4.67      -3.38
C       3.13       5.32      -5.90
C      14.46      12.24       0.81
C      15.85      12.86       0.64
C       5.26      10.50       0.80
C      12.80      11.93      -3.20
C      12.07      12.48      -4.43
C      11.89      15.00      -3.78
C       8.61       5.96      -0.81
C      10.00       5.33      -0.64
C      11.11       7.69      -0.80
C       6.96       6.27       3.20
C       6.23       5.72       4.43
C       6.05       3.20       3.78
C       3.07       0.81      -5.96
C      13.37      18.84      -5.33
C      12.27      18.99      10.50
C      16.41      15.00      -6.27
C      17.15      13.77      -5.71
C      17.33      14.42      -3.19
C       8.92      17.39       5.96
C       7.53      -0.64       5.33
C       6.42      -0.79       7.69
C      10.57       3.20       6.27
C      11.30       4.43       5.71
C      11.48       3.78       3.19
C      11.84      15.05       9.90
C      10.45      14.43       9.74
C       9.35      16.79       9.89
C      13.49      15.36       5.90
C      14.22      14.81       4.67
C      14.40      12.29       5.32
C       6.00       3.14       8.29
C       4.60       3.77       8.45
C      15.19      19.60       8.30
C       7.65       2.83      -5.90
C       8.38       3.38      -4.67
C       8.56       5.90      -5.32
N      13.18       9.89       3.96
N      10.12      14.57       3.78
N       7.33       8.31      -3.96
N       4.27       3.63      -3.78
N      16.10      13.06      -0.79
N      13.04      12.88      -5.47
N      10.26       5.14       0.79
N       7.19       5.32       5.47
N      13.12      17.41      -5.14
N      16.18      12.73      -5.32
N       7.27       0.79       5.14
N      10.34       5.47       5.32
N      10.20      14.23       8.31
N      13.26      14.42       3.63
N       4.35       3.96      -8.31
N       7.41       3.78      -3.63
O      11.00       9.37       2.71
O      11.01       7.14       3.07
O      14.72       7.63       0.60
O      13.38       9.37       1.09
O      11.14      12.20       3.11
O       9.19      11.51       2.15
O      10.25      12.73       5.92
O       8.47       8.61       1.85
O       5.16       8.83      -2.71
O      16.85      11.05      -3.07
O       8.87      10.57      -0.60
O       7.54       8.83      -1.09
O       5.30       6.00      -3.11
O       3.34       6.69      -2.15
O       4.41       5.47      -5.92
O      14.31       9.59      -1.85
O      13.92      11.80      -0.27
O      13.93      12.17       1.96
O       5.95       9.70       1.47
O       4.62      10.18      -0.27
O      14.06      12.21      -3.10
O      12.11      11.25      -2.41
O      13.18      15.02      -3.63
O      11.39      10.95       0.49
O       8.08       6.39       0.27
O       8.09       6.03      -1.96
O      11.80       8.50      -1.47
O      10.46       8.01       0.27
O       8.22       5.99       3.10
O       6.26       6.95       2.41
O       7.33       3.18       3.63
O       5.54       7.25      -0.49
O      15.29      17.93      -6.39
O       3.60       1.96      -6.03
O      11.58      19.67       9.70
O      12.91      17.93      10.18
O      15.15      15.10      -5.99
O      17.11      15.79      -6.95
O      16.04      14.57      -3.18
O       6.14       0.49      -7.25
O       9.45       0.27       6.39
O       9.44      16.24       6.03
O       5.73      -1.47       8.50
O       7.07       0.27       8.01
O       9.31       3.10       5.99
O      11.27       2.41       6.95
O      10.20       3.63       3.18
O      11.99      17.71       7.25
O      12.37      15.49       8.83
O      12.36      15.13      11.05
O       8.66      17.60      10.57
O       9.99      17.11       8.83
O      12.23      15.08       6.00
O      14.19      16.05       6.69
O      13.12      12.28       5.47
O      14.91      16.35       9.59
O       6.53       2.70      -8.83
O       6.52       3.07       7.14
O      14.50      18.80       7.63
O       4.15       1.09      -8.83
O       6.39       3.11      -6.00
O       8.34       2.15      -6.69
O       7.28       5.92      -5.47
O       9.06       1.85       8.61
