18

Cd       7.59       8.05      13.56
Cd      11.16       6.34      13.57
C      12.98       4.45      15.64
C       5.76       9.93      11.50
C       9.41       9.92      15.63
C       9.33       4.47      11.51
N       6.94       9.87      12.14
N       8.23       9.85      15.00
N      11.80       4.52      15.00
N      10.51       4.53      12.14
Cl       8.93       6.38      15.07
Cl       6.24       6.38      12.07
Cl       9.82       8.01      12.07
Cl       5.36       8.00      15.07
C       7.90      10.75      11.82
C       7.27      10.74      15.31
C      10.84       3.63      15.32
C      11.47       3.64      11.82
