23

Zn      21.51      12.42       6.82
Zn      19.91      13.35       9.44
Zn      21.51      10.57       9.44
Zn      23.11      13.35       9.44
C      18.95      13.90       6.69
C      24.07      10.94      10.87
C      18.95      10.94      10.87
C      24.07      13.90       6.69
C      21.51      15.38      10.87
C      21.51       9.46       6.69
O      21.51      12.42       8.78
O      19.93      13.33       6.09
O      18.79      13.99       7.96
O      23.09      10.19      10.54
O      24.24      12.17      10.54
O      19.93      10.19      10.54
O      18.79      12.17      10.54
O      24.24      13.99       7.96
O      23.09      13.33       6.09
O      22.66      14.90      10.54
O      20.37      14.91      10.54
O      21.51      10.59       6.09
O      21.51       9.27       7.96
