10

Al       4.00      14.51       0.00
O       2.94      16.10      -0.05
O       2.94      13.67      -1.35
O       2.94      13.75       1.40
O       5.06      15.59      -1.17
O       5.06      14.98       1.52
O       5.06      12.96      -0.35
C       1.99      12.85      -1.18
C       1.99      14.31       2.03
C       1.99      16.36      -0.85
