18

Al       6.32       7.39       8.76
Al       2.98       7.39       8.76
H       4.64       6.35      10.17
H       7.99       8.42       7.35
O       4.64       6.74       9.28
O       6.92       5.55       8.67
O       2.37       7.14      10.55
C       8.03       4.96       8.47
C       7.95       7.29      11.17
C       4.61       9.81       9.04
C       4.68       7.48       6.35
O       3.48       9.19       9.21
O       5.82       7.32       6.91
O       5.72       9.22       8.85
O       3.58       7.63       6.96
O       2.47       5.58       8.31
O       6.82       7.45      10.61
O       7.99       8.04       8.24
