27

C      -3.67      10.10       4.14
Ni      -4.77      14.35       5.30
Ni      -6.19      11.24       5.30
C      -3.82      12.07       6.99
N      -3.89      15.86       6.39
N      -7.07       9.73       6.39
N      -5.97      15.69       4.30
N      -4.99       9.89       4.30
O      -7.65      10.86       3.90
O      -3.31      14.73       3.90
O      -6.12      14.26       6.84
O      -7.48      12.54       6.25
H      -6.30      12.89       3.47
O      -4.84      11.33       6.83
O      -3.48      13.05       6.25
O      -5.48      12.79       4.09
H      -4.66      12.70       3.47
C      -2.55      15.97       6.39
C      -4.62      16.77       7.06
C      -7.99      11.53       2.87
C      -8.41       9.62       6.39
C      -6.34       8.82       7.06
C      -2.97      14.05       2.86
C      -5.42      16.79       3.74
C      -7.29      15.49       4.14
C      -7.15      13.52       6.99
C      -5.55       8.80       3.74
