23

Zn      -0.99      10.36       1.28
Zn      -4.14       9.86       1.28
Zn      -2.30       8.56      -1.04
Zn      -2.83      11.66      -1.04
O      -2.57      10.11       0.13
O      -0.13      12.08       0.94
O      -3.84       7.38      -0.86
O      -1.29      12.84      -0.86
O      -5.00       8.14       0.94
O      -0.60       7.65      -0.70
O      -4.54      12.57      -0.70
O      -2.18       9.03      -2.96
O      -2.95      11.19      -2.96
O      -3.68       9.84       3.20
O      -1.45      10.38       3.20
O       0.27       8.85       1.05
O      -5.40      11.37       1.05
C      -4.81       7.35      -0.04
C      -0.33      12.87      -0.04
C       0.28       7.91       0.19
C      -5.41      12.31       0.19
C      -2.57      10.11      -3.52
C      -2.57      10.11       3.76
