18

Al       2.42       0.04       0.06
Al       5.83       0.02       0.05
O       5.26       1.00      -1.52
O       2.99       1.48       1.17
O       1.87      -0.93       1.62
O       2.98       1.03      -1.53
O       1.87      -1.43      -1.07
O       5.27       1.45       1.18
O       4.11      -0.77       0.14
O      -0.42      -1.44      -1.08
H       4.10      -1.66      -0.24
H       0.71       1.79      -0.22
C       4.13       1.90       1.54
C       4.13       1.29      -2.00
C       0.73      -1.86      -1.45
C       0.72      -1.26       2.07
O      -0.40      -0.98       1.55
O       0.72       0.82      -0.12
