18

Al       0.14       0.03      12.59
Al       3.46      -0.06      12.60
C      -1.50       1.65      14.38
C      -1.59       1.62      10.83
H       1.86       1.64      13.14
H      -1.45      -1.59      13.28
C       1.74      -1.57      10.77
C       1.80      -1.62      14.44
O      -0.35       1.21      14.06
O      -2.68       1.06      11.13
O       2.85      -1.36      11.36
O       0.71      -1.34      13.86
O       0.63      -1.06      11.10
O       2.96      -1.21      14.09
O      -2.61       1.29      13.88
O      -0.45       1.36      11.35
O       1.81       0.80      12.66
O      -1.50      -0.85      12.66
