20

Zn       6.88       9.14      25.52
Zn       9.78       9.10      25.49
N      11.81       8.89      25.39
N       4.83       9.11      25.41
O       7.41      11.10      25.55
O       9.67      11.16      25.54
O       9.35       9.17      23.47
O       7.10       9.24      23.43
O       9.46       7.02      25.42
O       7.22       7.08      25.31
O       7.09       8.94      27.52
O       9.36       9.02      27.50
C       8.50      11.73      25.52
C       8.24       9.20      22.87
C       8.33       6.43      25.37
C       8.22       8.99      28.11
C      12.51       9.91      24.82
C      12.50       7.87      25.96
C       4.11       9.74      24.46
C       4.18       8.45      26.41
