36

Zn      -2.35       8.67       1.69
Zn      -4.88      10.46      -1.94
Zn      -4.98       7.47      -0.19
Zn      -2.21      11.67      -0.14
C      -1.74       5.68       1.61
C      -4.19       7.52       3.69
C      -2.04      12.47       2.80
C      -2.98      11.28      -4.25
C      -7.54       8.90       0.50
C      -4.77       6.35      -3.03
C       0.82      10.95       0.15
C      -3.85       8.20      -3.83
C      -1.59      10.59       3.89
C       0.45       8.80       0.56
C      -1.20      10.96      -2.96
C      -2.97       5.21      -0.18
C      -7.94      10.18      -1.28
C      -5.36       6.05       2.51
C      -4.20      13.93       0.39
C      -5.90      12.50       0.16
N      -2.18       6.82       1.07
N      -4.94       7.34      -2.14
N      -0.50      10.73       0.17
N      -4.36       8.49      -2.62
N      -0.74       9.41       0.42
N      -2.28      11.08      -2.17
N      -2.95       6.55      -0.03
N      -2.21      10.29       2.74
N      -6.65       9.81      -1.29
N      -5.09       7.11       1.74
N      -3.78      12.84      -0.28
N      -4.82      11.95      -0.42
N      -4.35       8.02       2.45
N      -2.49      11.44       2.05
N      -6.39       9.03      -0.20
N      -3.38      11.28      -2.97
