18

Al       3.17       4.77       8.68
Al       6.49       4.75       8.67
H       4.83       3.28       7.74
H       1.47       6.21       9.67
O       2.59       4.85       6.85
O       0.42       2.93       8.55
O       6.00       4.46      10.51
O       3.67       6.63       8.52
O       3.76       4.80      10.50
O       5.92       6.58       8.80
C       1.47       5.09       6.28
C       1.53       2.34       8.68
C       4.88       4.65      11.09
C       4.81       7.18       8.66
O       0.32       5.06       6.83
O       2.66       2.91       8.82
O       4.82       4.19       8.08
O       1.50       5.32       9.27
