9

In       7.45       4.22      10.95
C       5.43       3.43       9.33
C       7.38       2.05      12.57
O       9.56       3.76      10.54
O       6.32       6.05      11.36
O       6.62       3.76       8.97
O       7.30       3.28      12.94
C       9.82       4.76       9.76
C       7.17       6.63      12.15
