19

Gd       0.00       9.18      13.70
O       0.58      10.82      11.89
O      -1.71       8.86      11.89
O       1.13       7.86      11.89
N       1.84      10.89      12.15
N      -2.40       9.92      12.15
N       0.56       6.73      12.15
O       2.24      10.22      13.17
O      -2.02      10.60      13.17
O      -0.22       6.72      13.17
O      -1.68       8.30      15.00
O       0.08      11.08      15.00
O       1.60       8.16      15.00
C      -2.81       8.74      15.52
C       1.02      11.83      15.52
C       1.78       6.97      15.52
O       2.62      11.55      11.46
O      -3.36      10.27      11.46
O       0.74       5.73      11.46
