23

Zn      12.78      14.18      10.10
Zn      13.01      12.44       7.42
Zn      11.30      15.18       7.45
Zn      14.50      15.22       7.58
C      12.89      11.22      10.10
C      10.51      12.77       5.90
C      10.21      15.60      10.16
C      12.94      17.24       6.09
C      15.27      15.74      10.41
C      15.64      12.90       6.14
O      12.89      14.25       8.14
O      12.85      12.33      10.75
O      11.55      12.07       6.14
O      10.14      15.79       8.90
O      12.93      11.08       8.83
O      11.14      15.00      10.80
O      10.22      13.89       6.41
O      11.80      16.69       6.32
O      15.50      15.88       9.16
O      14.08      16.82       6.52
O      14.29      15.13      10.94
O      14.66      12.10       6.41
O      15.73      14.12       6.54
