10

Al       0.01      28.97      25.09
C       2.05      28.92      27.16
C       2.05      30.79      24.10
C       2.05      27.21      24.01
O       1.07      27.40      24.83
O       1.07      29.99      23.86
O       1.07      29.53      26.59
O      -1.08      28.10      23.77
O      -1.08      28.27      26.51
O      -1.08      30.55      24.99
