10

Al       3.20      21.75       7.83
C       5.18      21.77       5.76
C       5.14      23.53       8.89
C       5.23      19.99       8.90
O       4.23      20.75       9.14
O       4.23      21.13       6.33
O       4.24      23.30       8.01
O       2.14      20.20       7.96
O       2.15      22.72       9.17
O       2.15      22.43       6.37
