19

Tb       1.54       9.85       5.69
O       1.98       7.43       5.40
O       3.72      10.30       9.19
O       3.72      12.66       3.55
O       3.72       6.60       4.32
C      -0.58      12.48       6.74
C      -0.58       9.45       2.89
C      -0.58       7.64       7.44
N       3.05      10.13       8.17
N       3.05      11.87       4.21
N       3.05       7.57       4.69
O       0.04      11.54       6.15
O       0.04       9.41       4.00
O       0.04       8.61       6.92
O       3.35       9.25       7.28
O       3.35      11.54       5.42
O       3.35       8.78       4.37
O       1.98      10.82       7.93
O       1.98      11.31       3.74
