62

Zr      18.26      22.14       1.92
Zr      18.27      24.71      -0.64
Zr      18.24      19.56      -0.57
Zr      18.25      22.07      -3.09
Zr      15.80      22.13      -0.59
Zr      20.71      22.10      -0.62
H      20.25      24.01       1.43
H      16.33      24.17      -2.65
H      20.21      20.18      -2.66
H      16.27      20.11       1.34
H      17.32      26.71      -2.03
H      19.22      23.40      -5.20
H      17.52      20.24      -4.88
H      18.21      19.13      -3.35
H      19.02      17.83       1.28
H      18.29      19.37       2.40
H      17.53      23.96       3.70
H      18.24      25.09       2.15
H      18.97      17.83      -2.69
H      17.46      20.04       3.64
H      18.97      26.41       1.49
H      17.66      23.33      -5.54
O      16.22      22.10       3.08
O      14.76      22.19       1.35
O      20.36      25.71      -0.52
O      21.83      23.98      -0.68
O      16.07      25.67      -0.40
O      14.62      23.94      -0.62
O      20.36      21.91       2.96
O      21.83      22.02       1.24
O      18.28      23.90       3.08
O      18.27      20.16       3.11
O      18.22      25.80       1.37
O      18.16      26.24      -1.91
O      17.22      23.18       0.44
O      19.66      23.51       0.85
O      20.27      18.41      -0.62
O      21.74      20.14      -0.58
O      16.22      22.07      -4.29
O      14.76      22.05      -2.56
O      20.40      22.34      -4.22
O      21.86      22.06      -2.51
O      16.15      18.54      -0.72
O      14.68      20.27      -0.61
O      18.20      18.41      -2.56
O      18.26      18.43       1.23
O      18.28      20.29      -4.28
O      18.31      23.59      -4.87
O      19.63      20.67      -2.07
O      17.21      21.05      -1.66
O      19.27      21.04       0.43
O      16.93      23.61      -2.12
O      16.87      20.67       0.84
O      19.32      23.21      -1.70
C      15.04      22.15       2.59
C      21.54      25.22      -0.59
C      14.90      25.19      -0.47
C      21.54      21.93       2.48
C      21.46      18.90      -0.62
C      15.04      22.05      -3.80
C      21.59      22.25      -3.74
C      14.97      19.02      -0.70
