11

C       0.06      13.88       6.69
Cd      -0.02      14.63       9.86
C      -2.23      14.83      11.51
C       1.88      17.21      10.00
O       1.09      12.61       9.73
C       0.06      17.69      11.10
C       2.20      13.08       9.30
N      -0.69      14.46       7.70
N       0.72      16.70      10.39
C      -1.86      14.79       7.18
O      -1.10      14.34      11.89
