18

Al       1.82      18.04      14.93
O       2.36      19.53      15.99
Al       5.16      17.98      14.95
O      -0.99      16.49      13.89
O       2.33      16.80      16.33
O       5.68      19.22      13.56
O       1.29      16.58      13.85
O       4.63      19.45      16.03
H       3.47      17.25      13.40
O       3.49      17.88      14.14
H       0.13      18.77      16.49
O       0.15      18.14      15.74
C       3.51      19.94      16.36
C       0.16      16.08      13.52
C       3.46      16.40      16.74
C       0.12      19.62      13.15
O       4.62      16.74      16.36
O       1.27      19.28      13.53
