14

Cu       4.06       4.07       5.75
Cu       5.29       5.29       7.49
O       6.93       4.95       6.45
O       4.41       2.43       6.79
O       2.43       4.41       6.79
C       6.85       4.26       5.38
C       5.10       2.50       7.86
O       4.95       6.93       6.45
O       3.57       5.55       8.40
O       3.81       5.79       4.84
C       4.25       6.85       5.38
C       2.50       5.10       7.86
O       5.79       3.81       4.84
O       5.55       3.57       8.40
