15

Cu       3.58      11.92      19.16
Cu       4.84      10.65      16.54
Cu       2.26       9.35      17.86
N       5.57      12.21      17.23
N       5.13      12.65      18.47
N       2.03      11.24      19.88
C       5.89      13.68      18.84
N       1.55      10.03      19.43
C       6.58      13.00      16.84
C       0.52       9.66      20.21
N       2.93       8.64      16.30
C       1.26      11.63      20.92
C       4.52       8.33      14.80
N       4.15       9.10      15.83
C       2.55       7.61      15.53
