12

N       7.44       3.28       8.64
C      10.92       3.79       6.77
C      10.96       5.67       7.88
Zn       8.13       4.55       7.30
C       6.35       2.52       8.44
N       7.45       6.39       7.84
O       7.36       4.39       5.49
C       7.74       3.17       9.98
C       7.85       3.35       4.87
C       6.89       7.23       6.97
C       7.51       7.06       9.05
N      10.13       4.73       7.29
