35

C      10.86       2.39       0.63
H       9.76      -2.44       1.06
Mg      15.13      -0.00      -0.00
Mg      18.63       0.58      -0.53
Mg      11.64      -0.58       0.53
O      15.64       1.95       0.19
O      14.63      -1.95      -0.19
O      19.89       1.83      -1.56
O      10.37      -1.83       1.56
O      17.84       2.19       0.57
O      12.42      -2.19      -0.57
C      10.43      -0.79      -2.41
O      15.33       0.14      -2.00
C      19.83       0.79       2.41
O      14.93      -0.14       2.00
O      17.55       0.50      -2.27
O      12.72      -0.50       2.27
O      19.66      -1.18      -0.96
O      10.60       1.18       0.96
C      16.64       2.67       0.42
C      13.62      -2.67      -0.42
O      10.23      -0.59      -1.19
O      20.03       0.59       1.19
O      17.16      -0.67       0.44
O      13.11       0.67      -0.44
H      17.04      -0.71       1.41
H      13.22       0.71      -1.41
C      13.90      -0.34       2.71
H      17.50      -1.64       0.13
H      12.76       1.64      -0.13
C      16.37       0.34      -2.71
H      20.36       1.40      -2.32
H       9.90      -1.40       2.32
C      19.41      -2.39      -0.63
H      20.50       2.44      -1.06
