20

Zn       7.59       7.95       9.68
Zn       7.49      10.96       9.63
N       7.61       5.78       9.70
N       7.51      13.14       9.73
O       7.35       8.34       7.69
O       7.89      10.55       7.67
O       5.64       8.26      10.23
O       5.51      10.37       9.39
O       7.98       8.49      11.68
O       7.13      10.60      11.62
O       9.59       8.38       9.36
O       9.53      10.58       9.95
C       7.65       9.43       7.11
C       5.01       9.32       9.90
C       7.51       9.54      12.22
C      10.13       9.49       9.69
C       8.54       5.10      10.43
C       8.28      13.83      10.63
C       6.68       5.08       9.03
C       6.79      13.85       8.84
