23

Zn      18.40       7.33       8.84
Zn      16.91       4.45       8.65
Zn      18.64       5.51       6.17
Zn      20.09       4.61       8.84
C      15.80       6.79      10.12
C      16.14       3.96       5.85
C      18.53       8.48       6.13
C      21.23       4.13       6.16
C      20.91       6.99      10.38
C      18.51       2.46      10.12
O      18.49       5.50       8.13
O      16.75       7.61       9.89
O      15.90       3.81       7.10
O      18.61       7.36       5.52
O      15.71       5.58       9.72
O      18.45       8.66       7.39
O      17.13       4.56       5.34
O      20.28       4.67       5.49
O      21.11       5.79      10.02
O      21.31       4.03       7.43
O      19.93       7.73      10.03
O      17.35       2.87       9.73
O      19.63       3.01       9.87
