20

Zn       8.72       4.58       6.82
C       8.52       4.58      12.31
Zn       8.76       3.66       9.56
C       8.82       3.91       3.97
C       7.21       2.09       7.64
C       8.41       6.17       4.28
C      10.77       2.56       7.73
C       9.36       2.42      12.28
C      10.30       6.15       8.72
N       8.86       3.48      11.61
N       8.67       4.95       4.80
O      10.31       3.26       6.77
C       6.69       5.67       8.66
O       9.95       6.09       7.49
O       7.55       2.18       8.87
O      10.44       2.64       8.96
O       7.05       5.62       7.44
O       7.57       2.86       6.69
O       7.15       4.96       9.61
O       9.92       5.38       9.66
