14

Zn       4.26       4.15       6.67
Zn       2.78       5.27       8.64
C       2.26       2.52       7.17
C       4.65       3.79       9.79
C       5.46       6.39       7.36
O       3.22       2.55       6.31
C       1.87       6.21       6.33
O       2.05       3.42       8.04
O       4.94       3.55       8.58
O       3.71       4.58      10.19
O       5.73       5.45       6.53
O       4.43       6.47       8.09
O       2.85       5.54       5.89
O       1.48       6.20       7.56
