23

Zn       9.69       9.69      33.38
Zn       9.69      11.95      35.65
Zn      11.95      11.95      33.38
Zn      11.95       9.69      35.65
O      10.82      10.82      34.52
O       7.78      10.01      33.71
O      10.01      13.86      35.32
O      11.63      11.63      31.48
O       7.78      11.63      35.32
C      10.82      14.44      34.52
O      11.63      13.86      33.71
O      13.86      11.63      33.71
O      10.02      10.02      31.48
C      10.82      10.82      30.89
C       7.20      10.82      34.52
C      10.82       7.20      34.52
C      10.82      10.82      38.14
O      10.01       7.78      33.71
O      10.02      11.63      37.56
C      14.44      10.82      34.52
O      11.63      10.02      37.56
O      11.63       7.78      35.32
O      13.86      10.01      35.32
