18

O       5.70      22.22      18.61
O       3.26      22.76      19.92
Al       5.04      23.57      19.79
Al       1.46      23.56      19.86
O       6.84      24.37      19.73
O       4.39      24.58      18.29
O       2.12      24.91      21.05
O       0.81      22.55      21.37
H       3.27      21.79      19.98
H       6.85      25.34      19.69
C       3.22      24.83      17.84
C       6.80      22.30      21.81
C       3.28      25.33      21.38
C       6.86      21.80      18.28
O       4.42      24.94      20.97
O       8.00      22.19      18.69
O       5.67      22.54      21.28
O       2.09      24.59      18.38
