18

Zn       6.07       8.10      11.87
Zn       8.87       8.08      11.87
N      10.93       8.08      11.88
N       4.01       8.10      11.87
O       6.34      10.14      11.87
O       8.60       6.04      11.87
O       6.32       6.05      11.87
O       8.63      10.13      11.87
C       7.47       8.09      14.48
C       7.47       8.09       9.26
O       6.33       8.09      13.90
O       8.61       8.08       9.84
O       6.34       8.09       9.84
O       8.61       8.08      13.91
C       7.45       5.48      11.87
C       7.49      10.70      11.87
C      12.09       8.08      11.88
C       2.85       8.09      11.87
