168

Ag       8.81      13.72       1.02
Ag       1.19       7.89      -4.55
Ag      15.00      19.62       8.09
Ag      10.32       4.51      -1.02
Ag      -0.32      10.34       4.55
Ag       5.88      17.68      10.13
Ag       7.36      11.83      -0.69
Ag       0.20       7.35      11.85
Ag      13.05      17.85       6.80
Ag      -1.29      20.98       9.80
Ag       2.65       9.68      -2.74
Ag      10.67      15.59       2.30
Ag      11.77       6.40       0.69
Ag       1.55      11.71       6.36
Ag       7.83      19.45      11.41
Ag       3.92      16.31       8.41
Ag      -1.77       8.55       2.74
Ag       9.33      20.87      -2.30
Ag       7.02      20.92      -4.55
Ag      14.13       6.35       2.89
Ag       3.86      13.96       6.21
Ag      12.98      15.54       4.55
Ag       5.00      11.88      -2.89
Ag      -2.11       5.11      12.00
C       8.11      14.59      -1.88
C      -0.83       8.16      14.66
C      15.84      16.69       7.48
C      -4.08      20.36      10.99
C       1.89      10.75      -5.55
C      11.70      12.75       1.62
C      11.01       3.64       1.88
C       2.57      10.90       3.55
C       5.04      20.61      10.73
C       6.71      16.94       7.22
C      -1.01       7.48       5.55
C       8.30      23.72      -1.62
C       6.95      18.04      -3.52
C      15.02       6.24      -0.03
C       0.97      14.99       6.23
C       9.90      20.85      -5.58
C       3.93      13.06       9.14
C      13.23       9.28       2.88
C      13.05      18.43       3.52
C       4.11      12.00       0.03
C       0.78       4.07      11.98
C      10.10      15.61       5.58
C      -1.30      24.24       9.07
C       5.89       8.95      -2.88
C       6.23      14.63       2.50
C       3.46      23.47      -3.72
C      14.91       2.75       5.40
C      13.34       4.01       6.60
C       4.64      24.59      -5.39
C       7.41      13.00       3.70
C      12.90       3.60      -2.50
C      16.54      12.99       3.72
C       4.22      15.48      -5.40
C       5.78      14.22      -6.60
C      15.36      11.87       5.39
C      11.72       5.23      -3.70
C       8.45       9.31       0.77
C       1.59       8.38       9.26
C      10.58      19.36       7.95
C       1.17      19.77       8.34
C       1.55       8.34      -0.16
C       9.28      18.13       1.15
C      10.68       8.92      -0.77
C       0.15      10.68       8.95
C      10.30      17.93      10.26
C       1.45      17.53       9.87
C      -0.67       9.89       0.16
C      10.72      18.34      -1.15
C       9.85      10.05      -0.95
C      -0.02       9.87      10.08
C      11.39      17.71       9.39
C       0.37      18.40      10.06
C       0.15      10.02      -0.98
C      10.89      17.24      -0.29
C       9.27       8.18       0.95
C       1.77       9.20       8.13
C       9.49      19.59       8.82
C       2.26      18.89       8.16
C       0.73       8.21       0.98
C       9.11      19.22       0.29
C       5.27      14.69       3.53
C       4.45      22.46      -3.70
C      14.92       3.74       4.40
C      13.33       4.97       5.57
C       5.60      23.56      -5.40
C       6.43      13.04       4.71
C      13.85       3.55      -3.53
C      15.55      14.00       3.70
C       4.21      14.50      -4.40
C       5.79      13.26      -5.57
C      14.40      12.90       5.40
C      12.70       5.19      -4.71
N       7.29      13.79       2.62
N       2.71       6.29      -4.55
N      14.13       2.92       6.49
N      11.84       4.44      -2.62
N      16.41      11.94       4.55
N       5.00      15.32      -6.49
N       8.76      10.21      -0.18
N       0.70       8.73      10.21
N      11.50      18.42       8.26
N       0.26      19.51       9.29
N       1.24       9.25      -1.10
N      10.17      17.17       0.85
N      10.37       8.02       0.18
N       1.05      10.33       8.00
N       9.38      18.87       9.96
N       2.37      17.79       8.92
N      -0.37       8.98       1.10
N       9.83      19.30      -0.85
N       5.39      13.88       4.61
N       5.49      22.53      -4.55
N      14.13       4.82       4.50
N      13.74       4.35      -4.61
N      14.51      13.94       4.55
N       5.00      13.41      -4.50
O       7.21      13.71      -1.96
O      -0.98       7.27      13.78
O      14.91      16.58       6.63
O      -3.16      21.22      11.06
O       2.79      10.86      -4.67
O      11.86      13.67       2.48
O      11.91       4.53       1.96
O       2.73      11.80       4.43
O       5.97      20.72      11.58
O       5.78      16.08       7.15
O      -1.91       7.37       4.67
O       8.14      22.80      -2.48
O       9.06      14.71      -1.07
O       0.04       9.07      14.75
O      16.01      17.55       8.38
O      -4.26      19.42      10.17
O       0.94       9.92      -5.64
O      10.83      12.62       0.72
O      10.07       3.52       1.07
O       1.71      10.00       3.46
O       4.87      19.75       9.83
O       6.88      17.88       8.04
O      -0.07       8.31       5.64
O       9.17      23.85      -0.72
O       7.31      19.16      -3.06
O      15.55       6.57       1.06
O       2.11      15.46       6.52
O       8.77      20.55      -6.04
O       3.57      12.55       8.04
O      12.71       8.17       2.59
O      12.69      17.31       3.06
O       3.58      11.66      -1.06
O      -0.36       3.60      11.70
O      11.23      15.92       6.04
O      -0.94      24.75      10.17
O       6.42      10.06      -2.59
O       6.53      17.73      -4.66
O      13.85       5.87      -0.29
O       0.65      13.83       5.88
O      10.23      21.26      -4.44
O       4.35      14.22       9.39
O      14.41       9.55       3.23
O      13.48      18.73       4.66
O       5.28      12.36       0.29
O       1.10       5.23      12.34
O       9.77      15.20       4.44
O      -1.73      23.08       8.82
O       4.72       8.68      -3.23
