14

Zn      -8.30      12.61       6.92
Zn      -9.96      13.84       8.65
O      -9.89      11.35       7.36
C     -10.94      11.42       8.08
C      -8.13      15.60       8.01
C      -7.44      11.99       9.34
C     -10.04      14.01       5.50
O      -9.12      15.58       8.84
O     -11.26      12.41       8.83
O      -7.69      14.57       7.40
O      -6.96      11.85       8.13
O     -10.53      14.15       6.66
O      -8.51      12.62       9.60
O      -9.02      13.26       5.23
