54

Tb      -1.01      -1.39      12.26
Tb      -2.82      -6.17      10.31
C      -0.58      -4.82      12.53
C      -3.25      -2.74      10.03
C       0.24       0.97       9.74
C      -4.07      -8.53      12.83
C       0.96      -3.58       9.82
H      -0.76       1.18       9.33
C      -4.79      -3.98      12.74
H      -3.07      -8.74      13.23
O      -0.41      -1.60      14.68
H       1.00       1.03       8.94
O      -3.42      -5.96       7.88
H      -4.83      -8.59      13.63
O      -2.54      -1.41      14.04
H       0.48       1.70      10.51
O      -1.29      -6.15       8.53
O      -0.45       0.82      12.98
H      -4.31      -9.26      12.05
O      -3.38      -8.38       9.58
H       1.80      -2.88       9.87
O      -2.23       0.58      11.66
H       0.88      -4.01       8.82
O      -1.60      -8.14      10.90
H      -5.63      -4.68      12.70
O      -1.05      -5.53      11.59
H       1.13      -4.39      10.55
O      -2.78      -2.03      10.98
H      -4.71      -3.55      13.75
O      -1.10      -3.70      12.88
H       0.10      -1.05       9.72
O      -2.73      -3.86       9.69
H      -3.93      -6.51      12.84
H      -4.96      -3.17      12.02
O       0.28      -0.32      10.36
H      -1.04      -3.39       9.95
O      -4.12      -7.24      12.20
H      -2.79      -4.17      12.61
O      -0.23      -2.83      10.14
H       1.26      -1.42      13.69
O      -3.60      -4.73      12.43
H      -5.09      -6.14       8.88
O       1.41      -1.53      12.72
H       1.78      -0.69      12.41
O      -5.24      -6.03       9.84
H      -5.61      -6.87      10.16
C      -1.66      -1.71      14.93
C      -2.17      -5.85       7.64
C      -2.12      -2.29      16.22
C      -1.71      -5.27       6.34
C      -1.50       1.31      12.42
C      -2.33      -8.87      10.14
C      -1.90       2.72      12.68
C      -1.93     -10.28       9.89
