23

Zn      19.93       9.64       0.82
Zn      20.60      11.13      -1.90
Zn      18.71      12.51       0.27
Zn      21.82      12.21       0.82
O      20.26      11.37      -0.00
O      20.04       8.17      -0.49
O      19.27      12.10      -2.99
O      17.28      11.60       1.25
O      20.49       9.24      -2.44
O      18.16       9.55       1.67
O      17.93      13.08      -1.45
O      19.15      14.15       1.25
O      22.59      11.07       2.22
O      21.37      13.92       1.67
O      21.25       9.24       2.22
O      22.36      11.79      -2.44
O      23.25      12.55      -0.48
C      20.26       8.15      -1.76
C      18.26      12.84      -2.68
C      17.19      10.40       1.76
C      20.26      14.59       1.76
C      22.27       9.90       2.68
C      23.33      12.34      -1.76
