23

O       4.64       4.55      10.13
O       7.34       1.43       8.15
Zn       2.94       1.72       6.82
Zn       6.09       1.91       6.73
O       6.12       1.74      10.04
Zn       4.54       2.72       9.41
Zn       4.39       4.62       6.85
O       4.14       5.87       8.35
O       6.96       3.12       5.45
O       2.83       2.07      10.16
O       1.86       2.78       5.59
O       3.46       0.06       5.91
O       2.87       4.82       5.61
O       4.48       2.75       7.46
O       6.00       5.15       5.82
O       1.81       1.16       8.33
O       5.71       0.31       5.66
C       6.83       4.37       5.24
C       1.88       1.44       9.57
C       4.61      -0.29       5.47
C       4.32       5.66       9.60
C       7.19       1.42       9.42
C       1.95       4.01       5.26
