18

Mg       4.41       0.75      31.82
Mg       2.11       0.26      30.07
O       5.28      -2.36      30.97
Mg       6.72      -1.01      31.36
O       7.58       1.28      29.10
O       2.97       1.08      33.19
O       5.94       0.61      30.46
O       3.64      -0.85      30.87
O       1.33       0.24      31.93
O       3.50       1.73      30.25
O       8.11      -1.59      30.01
O       5.81      -0.14      33.00
C       6.39       1.40      29.54
C       4.12       2.57      29.39
C       8.73      -2.75      29.71
C       6.42       0.18      34.15
C       4.09      -2.04      30.64
C       1.79       0.64      33.07
