20

Zn       6.95       5.59       7.40
Zn       9.73       5.60       6.98
C       8.32       8.18       7.27
C       8.49       5.05       9.71
C       8.42       2.99       7.01
C       4.15       6.38       8.29
C       2.72       6.49       8.13
C       2.83       5.02       6.34
C       8.04       5.65       4.62
C       4.24       4.97       6.45
N       2.10       5.77       7.15
N       4.87       5.62       7.41
O       7.37       7.54       7.84
O       9.36       7.63       6.78
O       7.27       4.96       9.33
O       9.43       5.55       9.02
O       7.35       3.66       6.83
O       9.58       3.50       7.12
O       7.08       6.02       5.37
O       9.23       5.40       5.00
