21

Cd       3.61       0.93      30.31
Cd       0.77      -0.93      30.31
C       2.19      -0.00      27.69
Cd       6.56      -0.00      31.78
C       6.56      -0.00      28.97
O       2.75       0.99      28.27
O       1.62      -0.99      28.27
O      -0.16      -2.82      30.93
O       6.76      -2.15      32.13
O       4.29      -0.13      32.52
O       2.96      -1.24      31.12
O       5.48      -0.28      29.60
O       4.53       2.82      30.93
O       6.36       2.15      32.13
O       8.83       0.13      32.52
O       1.41       1.24      31.12
C      -1.11      -3.01      31.76
O      -1.11       0.28      29.60
C       3.57      -1.15      32.24
C       5.49       3.01      31.76
C       0.80       1.15      32.24
