20

Zn      20.49      10.82      14.99
Zn      20.48      10.82      17.80
N      20.51      10.82      12.85
N      20.46      10.81      19.95
O      19.06       9.37      15.29
O      19.05       9.36      17.56
O      19.05      12.27      17.57
O      19.06      12.26      15.29
O      21.91      12.26      17.53
O      21.92      12.26      15.26
O      21.91       9.36      15.26
O      21.91       9.36      17.54
C      18.65       8.96      16.42
C      18.65      12.67      16.43
C      22.32      12.67      16.40
C      22.31       8.95      16.40
C      21.65      10.82      12.15
C      19.39      10.83      12.14
C      19.32      10.81      20.65
C      21.58      10.81      20.66
