18

Zn       0.12      12.01       6.37
Zn      -2.12      10.43       5.31
Zn       2.37      10.30       7.21
C      -0.14       9.00       7.25
O       1.45      11.96       7.95
O      -0.80      11.81       4.56
O       3.69       8.95       6.38
O      -1.25      13.21       7.20
O      -3.49      10.54       3.86
O       0.99       8.98       7.84
O       4.05      11.50       7.06
O       1.80      11.27       5.40
O      -0.44       9.95       6.43
C       2.03      13.04       8.51
C      -0.22      11.76       3.35
C       4.27       7.93       7.04
C      -2.39      12.69       7.48
C       2.10      11.04       4.17
