27

Ni       3.89      -5.13      13.42
Ni       1.59      -7.66      13.42
H       3.15      -7.12      11.59
C       0.98     -10.34      14.51
C      -0.57      -8.76      15.17
C       2.91      -3.59      10.98
N       5.60      -5.71      12.42
N      -0.12      -7.09      12.42
H       2.33      -5.68      11.59
N       4.93      -3.73      14.51
N       0.55      -9.07      14.51
O       4.34      -6.41      14.96
O       3.30      -8.34      14.37
O       1.14      -6.38      14.95
O       2.19      -4.46      14.37
O       1.82      -9.16      12.02
O       3.66      -3.64      12.02
O       2.74      -6.40      12.21
C       6.38      -4.77      11.86
C       5.93      -7.00      12.26
C       4.06      -7.64      15.11
C      -0.90      -8.03      11.86
C      -0.45      -5.80      12.26
C       1.42      -5.15      15.11
C       4.51      -2.46      14.51
C       6.06      -4.04      15.18
C       2.57      -9.20      10.98
