54

Zr      -7.72      10.02      14.18
Zr     -11.24      12.07      17.08
Zr      -7.70      12.06      17.07
Zr     -11.25      10.03      14.19
Zr      -9.48       9.00      17.07
Zr      -9.48      13.08      14.19
H      -6.69       9.43      16.76
H     -12.26       9.44      16.77
H      -9.47      14.25      16.77
H      -9.49      11.04      12.22
O      -7.01       7.95      14.67
O     -11.95      10.92      18.86
O     -12.03      14.08      16.53
O      -6.93      11.21      12.46
O      -5.56      11.73      16.51
O     -10.63       8.74      12.47
O     -13.39      10.44      14.69
O      -8.33      13.25      18.85
O      -8.13       8.95      18.85
O      -8.05      14.73      14.67
O     -10.91      13.18      12.47
O     -10.83       7.31      16.53
O      -6.91      14.07      16.52
O     -12.05      11.21      12.47
O     -11.97       7.96      14.67
O      -6.98      10.91      18.85
O      -5.56      10.41      14.65
O     -10.60      13.26      18.86
O     -13.39      11.75      16.55
O      -8.36       8.74      12.46
O      -8.07      13.18      12.47
O      -8.14       7.30      16.53
O     -10.82       8.94      18.85
O     -10.89      14.74      14.67
O      -9.49      11.04      13.19
O      -9.47      13.34      16.44
O     -11.47       9.90      16.45
O      -7.49       9.89      16.44
O      -9.47      11.04      17.43
O      -9.48       9.35      15.03
O     -10.95      11.89      15.04
O      -8.01      11.89      15.03
C      -7.29       7.12      15.60
C     -11.67       9.76      19.34
C     -11.75      14.91      15.60
C      -7.20      12.37      11.99
C      -4.97      11.07      15.58
C      -9.49       8.40      11.99
C     -13.98      11.10      15.62
C      -9.46      13.59      19.34
C      -7.27       9.76      19.33
C      -7.19      14.91      15.59
C     -11.77      12.37      12.00
C     -11.69       7.12      15.60
