23

Zn       3.15       5.13       8.57
Zn       3.34       2.67      10.63
Zn       5.31       5.23      10.91
Zn       5.59       3.16       8.44
C       4.76       0.49       9.29
C       3.87       7.57       9.98
C       0.82       3.69       9.61
C       7.88       4.44       9.75
C       4.33       3.64      13.21
C       4.37       4.32       6.05
O       4.35       4.04       9.67
O       5.23       1.22       8.36
O       3.53       7.03       8.87
O       1.46       2.68      10.06
O       7.21       5.33      10.39
O       3.47       2.96      12.58
O       5.42       3.86       6.61
O       5.19       4.45      12.73
O       3.32       4.72       6.66
O       1.31       4.79       9.18
O       7.41       3.44       9.12
O       4.13       0.89      10.33
O       4.48       7.00      10.95
