12

C       9.61      16.72       2.93
O       7.96      17.02      -0.03
C      10.25      19.59      -0.73
Zn       8.11      18.71       1.20
C       5.22      19.17       0.73
O       8.08      20.64       1.93
N       8.71      17.73       2.89
C       7.63      17.06      -1.26
C       7.83      21.70       1.26
O       6.07      18.63       1.50
C       8.18      17.80       4.13
O      10.00      19.05       0.39
