20

Zn       6.84       8.95      14.02
Zn       9.61       8.96      14.01
C       8.22       6.32      14.08
C       8.23      11.59      14.12
C       8.23       8.89      11.40
C       8.21       9.03      16.64
C       4.11       8.12      13.22
C      12.33       9.80      14.82
C       4.12       9.80      14.82
C      12.33       8.11      13.23
N       4.79       8.96      14.02
N      11.66       8.95      14.02
O       7.08       6.90      14.02
O       9.37      11.02      14.06
O       7.10      11.01      14.06
O       9.35       6.91      14.03
O       7.10       8.91      11.99
O       9.34       9.00      16.05
O       7.07       8.97      16.07
O       9.37       8.95      11.97
