11

C       2.00      -2.07       6.58
O      -1.67      -3.59       5.39
Cu      -0.81      -3.12       7.11
O       0.05      -2.64       8.82
C      -3.62      -4.16       7.64
C       1.08      -3.08       4.88
C      -2.42      -2.63       4.93
C      -2.70      -3.16       9.34
C       0.80      -3.61       9.29
N       0.84      -2.67       6.12
N      -2.47      -3.56       8.10
