18

Al       9.69       5.09       7.42
Al      12.99       5.04       7.42
H      11.31       3.49       6.66
H       7.98       6.64       8.16
O      11.33       4.45       6.83
O       9.20       3.26       7.77
O      13.46       5.33       5.61
C       8.11       2.66       7.52
C       7.98       5.23       5.01
C      11.31       7.47       7.36
C      11.41       4.95       9.85
O      12.40       6.87       7.59
O      10.33       5.26       9.24
O      10.19       6.92       7.11
O      12.52       4.70       9.24
O      13.61       3.22       7.29
O       9.09       5.03       5.60
O       8.03       5.68       8.02
