14

Zn       7.91       1.10      15.13
Zn       7.79      -1.47      15.03
C       9.72      -0.33      16.86
C       5.98      -0.01      13.29
O       9.39       0.85      16.49
O       6.32      -1.19      13.67
O       9.15      -1.25      13.54
O       6.55       0.86      16.61
O       9.27       1.03      13.64
O       6.43      -1.43      16.52
O       9.26      -1.44      16.42
O       6.44       1.10      13.74
C       9.59      -0.11      13.16
C       6.11      -0.28      16.99
