10

Al       1.14      11.79       6.85
O       0.09      11.18       8.33
O       0.09      13.37       6.64
O       0.10      10.79       5.58
O       2.17      12.47       8.32
O       2.19      10.21       6.72
O       2.18      12.72       5.53
C      -0.83      13.54       5.77
C      -0.84      11.84       8.91
C      -0.84       9.98       5.87
