14

Zn       0.99      12.26       0.01
Zn       3.69      12.39      -0.01
C       1.92       9.77       0.01
C       2.88      12.45      -2.51
C       1.54      14.82       0.01
C       2.92      12.46       2.51
O       0.75      10.34       0.01
O       3.04      10.38      -0.00
O       4.02      12.52      -1.91
O       1.78      12.28      -1.90
O       2.72      14.33      -0.00
O       0.45      14.13       0.02
O       1.81      12.28       1.91
O       4.05      12.53       1.89
