18

Al       0.68      12.36      14.51
O       1.29      13.68      13.27
Al       4.04      12.30      14.56
O       4.53      10.74      15.60
O       0.18      13.79      15.71
O       3.52      13.87      13.60
O       3.42      11.15      13.14
O       2.35      12.25      15.35
O      -1.01      12.39      13.72
O       0.06      11.04      15.76
H       2.36      12.02      16.30
H      -1.01      12.80      12.83
C       2.31      10.60      12.84
C      -0.95      14.00      16.25
C       2.42      14.22      13.05
C      -1.04      10.47      16.09
O       1.18      10.93      13.31
O      -2.04      13.39      16.02
