20

Zn       7.51      10.06       8.79
Zn       7.48       6.97       8.73
C       7.37       8.67      11.31
C       8.15       4.20       7.87
C       8.39      12.83       8.08
C       6.61       4.21       9.64
C       4.93       8.30       8.65
C      10.05       8.27       8.86
C       7.34       8.74       6.23
C       6.52      12.80       9.50
N       7.47      12.15       8.80
N       7.39       4.87       8.76
O       7.66       9.82      10.83
O       7.75       7.69       6.81
O       7.22       9.90       6.76
O       7.21       7.59      10.66
O       5.52       9.39       8.93
O       9.51       7.13       9.03
O       9.48       9.39       8.67
O       5.46       7.17       8.37
