23

Zn       6.71       6.39      10.96
Zn       6.49       8.56       8.57
Zn       8.82       6.39       8.57
Zn       8.88       8.77      10.69
C       7.45      11.11       9.65
C       8.00       3.95       9.97
C       4.15       7.43      10.00
C      11.28       7.76       9.37
C       7.45       7.29       6.12
C       8.04       7.68      13.25
O       7.72       7.53       9.71
O       8.36      10.63      10.39
O       7.10       4.48      10.69
O       4.63       8.16       9.08
O      10.73       6.86       8.68
O       6.76       8.21       6.66
O       8.86       8.42      12.62
O       8.19       6.44       6.72
O       7.17       6.89      12.80
O       4.77       6.60      10.74
O      10.76       8.63      10.12
O       6.69      10.50       8.83
O       8.78       4.52       9.14
