13

Cd       0.00       4.40       4.40
C      -1.66       4.59       7.18
C       1.98       2.53       4.64
O       2.24       3.78       4.68
N       0.59       6.59       4.05
N      -0.59       4.05       6.59
C       0.19       7.36       2.97
C      -0.19       2.97       7.36
O      -0.81       4.44       2.07
C      -1.98       4.64       2.53
O       0.81       2.07       4.44
O      -2.24       4.68       3.78
C       1.66       7.18       4.59
