20

Zn       0.76      16.01       1.53
Zn      -2.06      15.89       1.37
C      -0.67      16.41      -1.12
C      -0.63      18.56       1.66
C       3.50      14.89       1.74
C      -4.80      15.39       2.40
C       3.49      17.15       1.20
C      -4.79      16.50       0.36
C      -0.81      15.49       4.03
C      -0.48      13.34       1.23
N       2.82      16.02       1.49
N      -4.11      15.93       1.37
O       0.42      16.16      -0.51
O      -1.72      17.90       1.75
O      -1.84      16.33      -0.62
O       0.54      18.05       1.61
O      -1.91      15.40       3.38
O       0.61      13.95       1.48
O       0.31      15.86       3.54
O      -1.60      13.90       0.99
