23

Zn      19.72       8.37      23.64
Zn      22.91       8.52      23.68
Zn      21.39       7.32      26.21
Zn      21.45       5.65      23.54
C      21.27      10.38      22.13
C      23.74       9.06      26.42
C      18.80       8.76      26.48
O      21.35       7.47      24.27
O      20.14       9.98      22.61
O      23.78       9.43      25.20
C      21.39       4.39      26.21
C      18.83       5.95      22.20
C      24.13       6.16      22.42
O      19.77       8.12      27.04
O      21.33       5.48      26.87
O      19.85       5.24      22.51
O      21.53       4.26      24.95
O      18.61       7.16      22.56
O      22.41       9.86      22.35
O      18.69       8.97      25.23
O      23.02       8.13      26.92
O      23.09       5.43      22.49
O      24.29       7.33      22.92
