19

Fe      19.42       5.89       6.08
C      22.01       7.14       7.20
C      16.91       4.68       4.72
C      19.91       5.27       2.86
C      19.07       8.87       6.59
C      19.06       6.55       8.95
C      19.82       3.00       5.40
C      21.34       6.91       3.63
C      17.71       8.09       4.90
C      17.65       4.88       8.20
C      21.18       3.72       7.12
S      23.30       7.87       7.87
S      15.69       3.97       3.92
N      20.33       6.05       3.87
N      18.66       7.84       5.83
N      18.65       5.76       7.93
N      20.20       4.00       6.23
N      21.05       6.63       6.73
N      17.84       5.17       5.29
