13

Zn      16.54      16.59      13.06
C      17.94      18.85      14.42
C      18.30      14.27      13.82
C      14.16      17.56      14.70
C      18.42      17.73      11.03
C      13.46      16.53      12.95
C      17.65      17.27      15.89
C      16.36      18.12      10.46
N      17.11      14.70      13.26
N      14.59      16.90      13.58
N      17.11      17.55      11.42
N      17.47      17.59      14.56
C      16.43      13.59      12.94
