118

Gd      13.39       7.73       9.64
Gd      13.39      15.46      12.00
Gd       6.70       3.87      19.21
Gd      13.39       7.73       2.42
Cu      13.39      11.60       7.21
Cu      16.74       5.80       7.21
Cu      10.04       5.80       7.21
Cu      10.04       5.80      14.43
Cu      16.74       5.80      14.43
Cu      13.39      11.60      14.43
H      15.51      12.04       6.01
H      16.06       3.75       6.01
H       8.61       7.41       6.01
H       9.37       7.85      15.63
H      15.30       4.19      15.63
H      15.51      11.16      15.63
H      11.28      11.16       8.41
H      17.42       7.85       8.41
H      11.48       4.19       8.41
H      10.72       3.75      13.22
H      18.18       7.41      13.22
H      11.28      12.04      13.22
C      15.34       9.47       8.20
C      13.93       5.17       8.20
C      10.91       8.55       8.20
C       7.23       6.42      13.44
C      17.61       3.05      13.44
C      15.34      13.72      13.44
C      11.44      13.72       6.23
C      19.55       6.42       6.23
C       9.18       3.05       6.23
C      12.86       5.17      15.41
C      15.87       8.55      15.41
C      11.44       9.47      15.41
C      16.05      10.50       7.32
C      14.46       4.04       7.32
C       9.66       8.65       7.32
C       7.77       7.55      14.32
C      16.36       2.95      14.32
C      16.05      12.69      14.32
C      10.73      12.69       7.11
C      19.01       7.55       7.11
C      10.42       2.95       7.11
C      12.32       4.04      14.53
C      17.12       8.65      14.53
C      10.73      10.50      14.53
C      14.86      10.26       5.16
C      14.85       5.20       5.16
C      10.47       7.74       5.16
C       8.15       6.40      16.47
C      17.17       3.86      16.47
C      14.86      12.94      16.47
C      11.93      12.94       9.26
C      18.63       6.40       9.26
C       9.61       3.86       9.26
C      11.94       5.20      12.38
C      16.31       7.74      12.38
C      11.93      10.26      12.38
C      13.36      10.12       4.89
C      15.48       6.56       4.89
C      11.33       6.51       4.89
C       8.78       5.04      16.74
C      18.03       5.09      16.74
C      13.36      13.07      16.74
C      13.42      13.07       9.53
C      18.00       5.04       9.53
C       8.75       5.09       9.53
C      11.31       6.56      12.11
C      15.45       6.51      12.11
C      13.42      10.12      12.11
N      15.15      11.11       6.33
N      15.44       4.52       6.33
N       9.58       7.56       6.33
N       8.75       7.08      15.31
N      16.28       4.03      15.31
N      15.15      12.08      15.31
N      11.63      12.08       8.10
N      18.04       7.08       8.10
N      10.50       4.03       8.10
N      11.34       4.52      13.54
N      17.20       7.56      13.54
N      11.63      11.11      13.54
O      14.06       9.39       8.09
O      14.49       6.32       8.09
O      11.62       7.49       8.09
O       7.79       5.28      13.55
O      18.31       4.11      13.55
O      14.06      13.81      13.55
O      12.72      13.81       6.34
O      18.99       5.28       6.34
O       8.47       4.11       6.34
O      12.29       6.32      15.30
O      15.16       7.49      15.30
O      12.72       9.39      15.30
O      12.54      10.69       5.69
O      16.38       6.99       5.69
O      11.26       5.51       5.69
O       9.68       4.60      15.95
O      17.96       6.08      15.95
O      12.54      12.51      15.95
O      14.25      12.51       8.74
O      17.10       4.60       8.74
O       8.83       6.08       8.74
O      10.41       6.99      12.90
O      15.52       5.51      12.90
O      14.25      10.69      12.90
O      12.99       9.45       3.90
O      15.08       7.22       3.90
O      12.11       6.52       3.90
O       8.38       4.37      17.74
O      18.80       5.07      17.74
O      12.99      13.75      17.74
O      13.79      13.75      10.53
O      18.40       4.37      10.53
O       7.98       5.07      10.53
O      11.70       7.22      11.11
O      14.67       6.52      11.11
O      13.79       9.45      11.11
