11

O       0.05       9.14       1.12
C      -3.62       8.67      -0.74
O      -1.67       6.38      -1.12
Cu      -0.81       7.76      -0.00
C       2.00       6.86       0.74
C       0.80       9.96       0.43
C      -2.70       9.82       0.86
C      -2.42       5.57      -0.43
C       1.08       5.70      -0.86
N      -2.47       8.85      -0.01
N       0.84       6.68       0.01
