24

Al      21.96      13.21      29.18
Al      18.80      13.17      29.70
Al      20.27      10.55      29.69
C      19.82      14.51      27.50
C      17.98      11.04      28.03
C      21.98      10.68      27.55
C      20.39      14.80      31.26
C      18.45      11.21      31.75
C      22.41      11.15      31.36
O      22.41      11.81      27.90
O      21.00      14.13      27.69
O      18.84      14.45      28.34
O      17.70      12.19      28.52
O      18.77      10.19      28.58
O      21.26       9.89      28.27
O      22.68      12.22      30.75
O      21.39      14.59      30.51
O      19.17      14.47      30.97
O      18.00      12.26      31.16
O      19.16      10.30      31.20
O      21.66      10.22      30.89
O      20.32      12.31      29.53
O      23.48      14.02      28.87
H      23.60      14.88      29.30
