13

O       6.24      19.91       2.64
O       5.07      20.47       0.83
Zn       5.33      22.26      -0.40
Zn       7.28      21.05       1.42
C       6.56      23.74       1.79
O       5.59      23.65       0.96
O       7.51      22.88       1.91
O       8.36      20.28       0.02
O       7.00      21.55      -1.28
O       3.79      21.64      -1.40
C       7.96      20.73      -1.13
C       4.05      22.16      -2.57
C       5.20      19.75       1.88
