10

Al       3.95      14.51       0.00
O       4.99      12.92      -0.18
O       4.99      15.47      -1.30
O       4.99      15.16       1.47
O       2.90      13.57      -1.30
O       2.90      13.86       1.47
O       2.90      16.11      -0.16
C       5.92      16.30      -1.02
C       5.92      14.51       2.06
C       5.92      12.73      -1.03
