55

O       5.91       2.10       1.35
O       5.91       0.12      -2.49
Cr       7.33       1.94       0.00
O       8.76       2.10       1.35
Cr       7.33      -0.97       1.68
Cr       7.33      -0.97      -1.68
O       8.76       0.12      -2.49
O       8.76      -2.22      -1.14
O       8.76       2.10      -1.35
O       5.91       0.12       2.49
O       5.91      -2.22      -1.14
O       5.91       2.10      -1.35
O       7.33      -0.00       0.00
O       8.76       0.12       2.49
O       8.76      -2.22       1.14
O       5.91      -2.22       1.14
H       7.33       7.98       0.00
H       7.33      -3.99      -6.91
H       7.33      -3.99       6.91
H       7.33       4.18       2.07
H       7.33       6.68       2.16
H       7.33      -0.30      -4.65
H       7.33      -1.47      -6.87
H       7.33      -3.88       2.59
H       7.33      -5.21       4.71
H       7.33      -0.30       4.65
H       7.33      -1.47       6.87
H       7.33      -3.88      -2.59
H       7.33      -5.21      -4.71
H       7.33       4.18      -2.07
H       7.33       6.68      -2.16
C       7.33       6.89       0.00
C       7.33      -3.44      -5.96
C       7.33      -3.44       5.96
C       5.41       1.26       2.19
C       5.41       1.26      -2.19
C       5.41      -2.53      -0.00
C       9.25       1.26       2.19
C       9.25       1.26      -2.19
C       9.25      -2.53       0.00
C       7.33       4.78       1.16
C       7.33       6.17       1.20
C       7.33      -1.39      -4.72
C       7.33      -2.05      -5.95
C       7.33      -3.39       3.56
C       7.33      -4.13       4.75
C       7.33      -1.39       4.72
C       7.33      -2.05       5.95
C       7.33      -3.39      -3.56
C       7.33      -4.13      -4.75
C       7.33       4.78      -1.16
C       7.33       6.17      -1.20
N       7.33       4.10       0.00
N       7.33      -2.05      -3.55
N       7.33      -2.05       3.55
