23

Zn      18.61       1.82       0.75
Zn      16.93      -0.95       0.60
Zn      20.13      -0.98       0.62
Zn      18.61       0.11      -1.96
C      16.02       1.36       2.16
C      18.53      -3.07       1.93
C      21.12       1.35       2.16
C      21.12      -1.37      -2.15
C      18.58       3.07      -1.93
C      16.02      -1.36      -2.16
O      18.54       0.00      -0.00
O      17.01       2.10       1.84
O      17.39      -2.58       1.62
O      21.23       0.15       1.77
O      15.82       0.16       1.78
O      20.18       2.17       1.86
O      19.68      -2.59       1.63
O      21.23      -1.53      -0.90
O      18.59       1.97      -2.59
O      20.18      -0.75      -2.76
O      18.59       3.20      -0.66
O      15.81      -1.54      -0.92
O      17.01      -0.76      -2.69
