18

O       4.85      15.66       1.44
O       1.49      17.78      -1.53
Al       4.30      16.77      -0.05
Al       0.96      16.75      -0.02
O       2.63      15.97       0.13
O       7.12      15.69       1.52
O       0.41      15.36      -1.21
O       5.98      17.56      -0.10
H       2.65      15.21       0.74
H       5.98      18.48       0.22
C       2.62      18.14      -2.00
C       2.63      18.62       1.55
C       5.97      15.34       1.94
C       5.97      14.96      -1.63
O       1.49      18.20       1.17
O       3.76      17.82      -1.55
O       4.83      15.40      -1.27
O       3.77      18.20       1.16
