18

Al       5.51       6.67       8.41
Al       2.19       6.69       8.48
O       3.85       7.52       8.46
O       1.70       7.82      10.02
O       2.66       5.60       6.96
H       3.88       8.40       8.85
H       7.18       4.99       8.92
O       5.04       5.58       9.95
O       6.13       8.04       9.60
O       2.79       5.35       9.71
C       3.90       5.11      10.30
C       3.79       5.09       6.64
C       7.18       8.21      10.32
O       7.18       5.85       8.48
O       4.89       5.32       7.24
O       6.00       7.71       6.85
C       7.16       8.15       6.56
O       1.55       8.00       7.27
