20

Zn       5.61       5.46      13.17
O       3.62       5.90      13.11
O       3.54       8.16      13.12
O       5.75       5.61      11.11
O       7.60       5.92      13.29
Zn       5.60       8.26      13.35
O       5.83       7.86      11.34
O       7.67       8.17      13.53
C       5.47       6.61      15.86
C       2.97       7.02      13.11
C       5.82       6.79      10.63
C       8.24       7.03      13.39
C       5.39       2.74      11.94
C       4.46      10.98      12.92
C       6.73      11.04      13.44
C       5.76       2.66      14.24
N       5.58       3.38      13.11
N       5.60      10.34      13.23
O       5.58       5.49      15.26
O       5.37       7.75      15.32
