38

C       9.93      11.18       9.14
C      20.50      17.26      11.44
Cu      14.08      13.65      10.31
C       9.06      11.54      11.46
Cu      16.35      14.79      10.26
C      21.37      16.91       9.12
N      10.14      11.69      10.49
N      20.29      16.75      10.09
O      14.77      12.58      11.82
O      15.66      15.87       8.76
O      15.40      16.08      11.47
O      15.03      12.37       9.10
O      13.38      15.05      11.58
C      14.17      16.03      11.82
C      16.26      12.42       8.76
O      17.05      13.39       9.00
C      16.00      12.66      12.15
O      16.83      13.54      11.73
O      13.60      14.91       8.85
C      14.43      15.78       8.43
O      12.18      12.56       9.98
O      18.25      15.88      10.59
H      11.31      12.70      11.85
H      19.13      15.74       8.73
H       9.36      10.24       9.20
H      21.06      18.21      11.38
H      10.90      11.01       8.67
H      19.53      17.44      11.91
H       9.36      11.90       8.52
H      21.07      16.55      12.06
H       9.34      12.01      12.40
C      11.26      12.35      10.80
H      21.09      16.44       8.18
C      19.17      16.09       9.78
H       8.86      10.47      11.63
H      21.57      17.98       8.95
H       8.15      12.02      11.09
H      22.28      16.42       9.49
