52

Gd       1.24       1.44      17.98
Gd      -1.50      -1.44      18.90
H       3.49       4.53      13.93
H       5.25       4.27      13.82
C      -0.66       3.47      17.42
H       3.28      -0.86      17.53
N      -4.45      -2.83      21.96
H       5.06       1.09      14.12
C       3.23       2.90      15.83
H      -3.54       0.86      19.35
H       5.08       1.21      15.91
N       4.20       2.83      14.92
O      -2.58       0.67      19.20
O       2.32      -0.67      17.68
O       3.03       1.31      19.70
H       2.49       3.71      15.68
O      -0.39      -0.33      17.11
O      -0.89       2.50      18.25
O      -0.74      -3.57      20.00
O       0.63      -2.50      18.63
O       0.68       0.89      15.60
C       5.20       1.77      14.97
O       0.49       3.57      16.87
O      -3.29      -1.31      17.17
O       1.99       3.25      19.49
O       3.13       2.10      16.79
O       0.13       0.33      19.76
O      -2.25      -3.25      17.38
C      -3.13      -2.53      16.80
O      -3.39      -2.10      20.08
O      -0.94      -0.89      21.28
C      -5.45      -1.77      21.90
H      -5.33      -1.21      20.97
H      -2.75      -3.71      21.20
H      -2.11       1.47      18.84
C       2.88       2.53      20.08
H       1.86      -1.47      18.04
H      -5.32      -1.09      22.76
H      -4.39      -3.25      24.02
C      -1.75       4.44      17.15
C       1.49      -4.44      19.73
H      -5.51      -4.27      23.06
H      -3.75      -4.53      22.95
H       4.13       3.25      12.85
H      -6.46      -2.21      21.94
H       6.20       2.21      14.93
C       4.27       3.77      13.81
C      -0.24       0.12      20.99
C      -4.53      -3.77      23.06
C       0.40      -3.47      19.46
C      -0.02      -0.12      15.89
C      -3.48      -2.90      21.05
