11

C       2.23      14.83       2.21
Cd       0.02      14.63       0.56
C      -0.06      13.88      -2.61
C      -1.88      17.21       0.70
O      -1.09      12.61       0.43
C      -0.06      17.69       1.80
C      -2.20      13.08      -0.01
N       0.69      14.46      -1.60
N      -0.72      16.70       1.09
O       1.10      14.34       2.58
C       1.86      14.79      -2.13
