15

Cu      12.14      20.51      16.40
Cu      10.91      19.51      19.12
Cu      12.44      22.32      18.91
C      11.35      17.83      15.59
C      10.84      17.00      17.58
C      14.32      23.71      17.08
C      13.85      22.56      15.25
C       9.85      20.84      21.52
C      10.93      22.77      21.34
N      11.04      18.32      17.72
N      11.36      18.84      16.49
N      13.13      22.05      16.26
N      13.42      22.76      17.40
N      11.36      21.96      20.36
N      10.70      20.76      20.47
