23

Zn      18.38       7.25       8.85
Zn      16.88       4.40       8.69
Zn      18.61       5.48       6.21
Zn      20.10       4.52       8.86
O      18.48       5.41       8.16
O      16.73       7.52       9.87
O      15.87       3.77       7.13
O      18.55       7.31       5.50
O      15.66       5.50       9.77
O      18.40       8.57       7.40
O      17.08       4.53       5.37
O      20.22       4.62       5.51
O      21.10       5.71      10.05
C      15.76       6.72      10.13
C      16.07       3.90       5.88
C      18.48       8.41       6.13
O      19.89       7.64      10.04
C      20.88       6.92      10.41
C      18.49       2.39      10.14
O      17.35       2.83       9.76
C      21.19       4.07       6.15
O      21.30       3.95       7.42
O      19.63       2.90       9.88
