24

Al       8.10      10.55      28.33
Al      11.31      10.45      28.35
Al       9.83       7.84      28.37
C       9.97      11.88      30.32
C      12.06       8.33      30.08
C       7.89       8.26      30.30
C      10.00      12.00      26.50
C      11.80       8.43      26.38
C       7.76       8.14      26.55
O      11.22       7.48      29.61
O       8.69       7.40      29.76
O       7.48       9.31      26.95
O       8.86      11.63      26.87
O      11.11      11.86      27.16
O      12.14       9.56      26.88
O      11.08       7.55      26.96
O       8.56       7.30      27.13
O       9.76       9.60      28.36
O       7.51       9.34      29.79
O       8.84      11.70      29.77
O      11.12      11.60      29.81
H       6.28      11.81      29.10
O      12.38       9.43      29.51
O       6.58      11.43      28.27
