20

Zn       6.04       5.14       5.93
Zn       3.24       4.96       5.74
H       8.50       4.57       6.65
C       4.94       2.49       5.60
C       8.95       6.06       5.51
C      10.42       5.92       5.62
C       4.44       4.80       8.42
C       4.43       7.64       6.03
C       4.65       5.32       3.24
I      10.29       2.94       5.42
N       8.08       5.32       6.07
N      11.12       4.84       5.61
O       6.06       3.10       5.58
O       3.79       3.03       5.72
O       5.60       4.72       7.90
O       3.33       4.97       7.81
O       5.56       7.12       6.29
O       3.35       7.01       5.77
O       5.73       5.47       3.91
O       3.50       5.05       3.69
