36

Zn      -8.72       3.88      16.46
Zn     -11.90       0.05      16.95
Zn     -11.69       2.81      14.55
Zn      -8.91       0.99      18.80
C     -10.84       6.08      16.82
C      -9.85      -2.10      16.31
C     -12.58      -0.35      19.92
C      -8.15       4.03      13.44
C     -14.35       3.15      15.90
C      -6.18       0.71      17.49
C      -8.15       3.33      20.55
C     -13.08       0.52      13.07
C     -14.25       1.70      17.57
C      -6.13       2.41      16.07
C      -8.08       5.16      19.33
C     -13.32      -1.20      14.42
C     -11.20       1.01      20.97
C      -9.50       2.60      12.43
C     -12.05       5.83      14.98
C      -8.62      -2.00      18.15
N     -10.48       4.92      16.23
N      -7.38       2.29      16.54
N      -8.41       4.12      18.54
N     -12.61      -0.24      15.05
N     -10.90       1.03      19.66
N      -9.75       2.59      13.76
N     -11.23       4.78      15.08
N      -9.33      -0.89      18.08
N     -10.11      -0.92      16.93
N     -11.75       0.19      19.02
N      -8.91       3.45      14.37
N     -13.08       2.74      16.04
N      -7.41       1.23      17.41
N      -8.45       3.00      19.28
N     -12.44       0.81      14.21
N     -13.01       1.83      17.06
