11

Cd       0.02       5.63       8.74
C      -0.06       4.88      11.91
C       2.23       5.83       7.10
C      -1.88       8.21       8.61
C      -0.06       8.69       7.50
O      -1.09       3.61       8.87
C      -2.20       4.08       9.31
N       0.69       5.46      10.90
N      -0.72       7.70       8.21
C       1.86       5.80      11.43
O       1.10       5.35       6.72
