22

Zn       6.22       0.10      15.28
Zn       3.39       0.10      15.28
C       4.81       0.09      12.66
C       4.81       0.09      17.91
C       4.81       2.72      15.28
C       4.81      -2.53      15.28
C       8.84      -1.27      15.08
C       8.84       0.64      16.57
C       8.84       0.97      14.18
C      10.39       0.97      14.17
C      10.38      -1.27      15.09
C      10.39       0.64      16.57
N       8.33       0.11      15.28
N      10.90       0.11      15.28
O       5.94      -1.95      15.27
O       3.67      -1.95      15.29
O       3.67       0.07      17.33
O       3.67       0.10      13.24
O       3.67       2.14      15.28
O       5.94       0.11      17.33
O       5.94       0.07      13.24
O       5.94       2.14      15.29
