34

Ni       1.56      20.90      14.61
N       0.54      18.05      15.09
Ni       4.17      21.82      16.21
N       3.63      19.14      19.23
O      -0.17      21.85      15.07
Ni       1.56      20.90      17.81
O       3.92      23.29      14.84
O       2.06      22.63      18.72
O       3.92      23.29      17.57
O       2.06      22.63      13.70
C      -0.63      22.16      16.21
O      -0.17      21.85      17.35
O       2.34      21.46      16.21
C       3.00      23.45      13.99
C       3.00      23.45      18.43
N       0.64      20.49      19.54
N       0.64      20.49      12.88
N       6.09      22.41      16.21
C       1.23      20.83      20.71
N       3.32      20.06      14.08
C      -0.66      20.16      12.87
C       6.68      22.75      15.05
N       4.41      20.45      17.67
C      -0.66      20.16      19.55
N       0.93      19.22      16.88
N       4.41      20.45      14.75
C       6.68      22.75      17.37
N       0.93      19.22      15.54
C       1.23      20.83      11.71
N       3.32      20.06      18.34
N       3.63      19.14      13.19
N       5.47      19.79      18.11
N       0.54      18.05      17.33
N       5.47      19.79      14.31
