23

Zn       9.24      10.79       5.64
Zn      10.83      11.72       8.27
Zn       9.22       8.95       8.27
Zn       7.62      11.73       8.26
C       9.22      13.74       9.73
C       9.22       7.82       5.54
C      11.78      12.28       5.52
C       6.65       9.33       9.68
C      11.80       9.29       9.66
C       6.68      12.27       5.51
O       7.61       8.57       9.32
O      11.99      10.51       9.30
O       6.50      12.36       6.76
O      10.78       8.57       9.41
O       7.67      11.72       4.91
O      10.84      11.67       4.91
O       6.51      10.57       9.39
O      10.36      13.24       9.42
O       9.28       7.64       6.80
O       9.23      10.80       7.61
O       8.08      13.32       9.33
O       9.18       8.96       4.94
O      11.92      12.41       6.78
