15

C      27.95       9.21      26.51
N      23.49       4.63      26.24
N      23.51       5.60      27.21
Cu      24.81       6.90      27.18
Cu      24.79       4.66      24.93
Cu      27.05       6.91      24.93
C      26.38       9.19      28.08
N      26.12       8.20      27.21
N      27.09       8.21      26.24
N      26.09       4.64      23.62
C      26.35       3.78      22.62
N      27.07       5.61      23.62
C      27.93       5.34      22.62
C      22.52       5.34      28.09
C      22.49       3.77      26.52
