11

Cu       8.00       0.00       0.00
C       6.75       2.56      -0.67
N       8.36      -1.63       1.03
C       8.92      -1.15      -2.45
N       7.64       1.63      -1.03
C       7.08       1.15       2.45
C       7.75      -2.09       2.19
O       9.33      -0.57      -1.37
C       8.25       2.09      -2.19
O       6.67       0.57       1.37
C       9.25      -2.56       0.67
