20

Zn       3.67       6.11       5.45
Zn       6.45       6.11       5.34
C       5.06       8.71       5.39
C       5.10       6.08       8.03
C       4.99       3.51       5.27
C       5.09       6.02       2.75
C      -0.52       6.74       6.32
C      -0.47       5.43       4.49
C       0.92       5.45       4.51
C       0.88       6.76       6.35
N      -1.22       6.09       5.40
N       1.63       6.13       5.45
O       3.93       8.13       5.55
O       6.19       8.14       5.31
O       3.95       5.96       7.52
O       6.20       6.18       7.41
O       3.85       4.08       5.31
O       6.12       4.10       5.27
O       3.99       6.17       3.37
O       6.26       6.07       3.26
