23

Zn      20.17       1.57      23.00
Zn      18.61       4.38      22.82
Zn      18.52       2.68      25.53
Zn      16.96       1.62      22.92
C      18.57       5.63      25.49
O      21.25       2.72      21.82
O      18.56       2.56      23.56
C      21.13       3.91      21.41
O      18.60       5.76      24.22
C      21.10       1.20      25.74
O      20.11       1.81      26.26
O      21.31       1.01      24.49
C      18.57      -0.50      21.63
O      18.54       4.54      26.15
O      16.95       1.80      26.32
O      17.43      -0.00      21.91
O      19.72      -0.03      21.96
O      20.18       4.72      21.68
O      17.02       4.67      21.71
C      16.00       1.20      25.71
O      15.88       1.06      24.45
O      15.83       2.73      21.76
C      16.03       3.94      21.39
