13

N       9.81       8.33       6.10
N      12.33       6.96       7.85
N       9.81       8.51       9.49
N       9.45       5.76       7.96
C      10.49       9.17       5.29
C       8.97       5.26       9.11
C      13.46       7.69       7.84
Zn      10.38       7.56       7.83
C       8.62       8.07       5.45
C      12.76       5.66       7.86
C       8.50       8.75       9.84
C       9.27       4.77       7.01
C      10.56       9.05      10.46
