30

Cu       4.37      18.18      23.27
C       2.75      17.05      21.07
Cu       6.53      16.61      23.03
C       4.10      18.83      20.48
Cu       6.78      15.73      25.41
Cu       7.16      14.13      23.58
Cu       9.05      12.36      23.37
C       2.24      19.39      24.87
C       4.37      19.93      25.60
C       9.35      13.24      20.63
C      11.31      12.39      21.52
C       5.74      13.58      27.10
C       8.05      13.59      26.98
C       7.75      18.14      26.75
C       5.65      17.45      27.45
I       4.41      15.54      24.17
I       6.93      19.18      23.06
I       9.12      15.65      24.00
I       6.45      11.84      23.01
N      10.01      12.73      21.69
N       6.71      17.29      26.63
C      10.98      11.81      25.46
N       9.78      11.44      24.94
C       9.18      10.35      25.46
N       6.66      16.04      21.11
N       3.66      17.98      21.43
N       3.58      19.25      24.74
N       6.87      14.10      26.59
C       5.82      15.13      20.59
C       7.66      16.52      20.34
