34

Zn       7.96       1.49       8.29
Zn       6.91      -2.25      10.51
Zn       9.59      -0.25      10.55
Zn       5.09       0.51       9.81
N       8.85      -0.55       8.54
N       8.01       0.83      11.15
N       5.10       2.01       8.58
N       9.28      -1.84      11.74
N       8.10      -1.71       8.90
N       7.57       1.77      10.25
N       6.10       1.92       7.62
N       8.51      -2.98      11.51
N       5.10      -1.16       8.69
N      12.47      -0.54      10.77
N      10.70       1.88       8.52
N       5.04      -0.08      11.67
N       9.62       2.53       7.94
N       5.69      -1.29      11.84
N       5.25      -2.43       9.25
N      11.40       0.31      11.03
C       9.77      -0.98       7.58
C       7.77       1.30      12.39
C       4.21       2.93       8.19
C       9.86      -1.95      12.94
C       8.60      -2.72       8.20
C       7.10       2.83      10.94
C       5.76       2.78       6.64
C       8.69      -3.78      12.58
C       4.86      -1.32       7.37
C       4.07       0.02      12.62
C      10.08       3.58       7.25
C       5.08      -1.93      12.83
C       5.07      -3.32       8.27
C      11.88       1.48      11.50
