20

Zn       6.20       5.52      11.80
Zn       3.31       5.46      11.67
C       9.06       5.99      10.71
N      11.18       5.48      11.73
N       8.30       5.46      11.70
O       5.93       7.51      11.59
O       3.71       7.41      12.11
O       5.77       5.36       9.77
O       3.56       5.89       9.66
O       5.87       3.56      12.02
O       3.72       3.50      11.25
O       5.76       5.79      13.81
O       3.66       4.96      13.64
C       4.80       8.03      11.87
C       4.71       5.70       9.15
C       4.81       2.96      11.63
C      10.43       6.08      10.78
C       4.69       5.31      14.30
C      10.45       4.85      12.67
C       9.02       4.95      12.72
