38

Zn      13.38       0.93       1.83
Zn      16.21       2.09      -0.12
Zn      15.93      -0.82      -1.70
Zn      13.50      -1.93       0.16
C      13.42       3.96       2.21
C      12.53       3.39       3.20
C      17.29       1.46       2.58
C      14.56      -2.71      -3.67
C      15.83      -3.08       1.63
C      14.42       2.86      -2.43
C      12.05      -1.08       3.83
C      11.49      -0.45      -1.47
C      18.86      -0.10      -2.52
C      14.29       0.93      -3.50
C      12.04      -2.97       2.71
C      11.29       1.45      -0.35
C      18.99       1.83      -1.46
C      13.00      -3.61      -2.40
C      17.51      -2.36       0.38
C      14.91       4.94       0.91
C      15.70       0.37       3.65
N      14.14       3.00       1.56
N      12.54      -0.83       2.60
N      14.83       1.89      -1.59
N      12.50      -0.36      -0.59
N      17.64       0.19      -2.01
N      14.75       0.70      -2.25
N      12.53      -2.01       1.91
N      16.30       1.16       1.69
N      12.38       0.80       0.10
N      17.73       1.38      -1.34
N      13.83      -2.91      -1.61
N      16.41      -1.64       0.07
N      15.05       3.59       0.79
N      15.33       0.51       2.35
N      14.81      -2.35      -2.40
N      15.38      -2.08       0.84
O      12.32       2.16       3.29
