18

Al       7.06      17.51      18.24
Al       3.74      17.53      18.21
O       4.35      16.07      17.16
O       7.55      18.74      19.66
O       6.46      16.32      19.60
O       9.90      18.43      16.53
O       6.59      16.28      16.85
O       9.76      19.04      19.23
O       7.69      18.72      16.93
O       4.22      16.60      19.83
O       5.40      18.35      18.13
O       8.73      16.70      18.33
H       5.41      19.30      17.93
H       8.74      15.84      18.77
C       5.35      16.16      20.22
C       8.73      18.88      16.22
C       5.44      15.80      16.55
C       8.69      19.27      19.88
