14

Zn       2.77       8.89       0.03
Zn       5.45       8.80      -0.06
C       3.57       7.07      -1.79
C       4.53      10.63      -1.82
C       3.79      10.65       1.79
C       4.53       7.04       1.77
O       2.44       7.50      -1.37
O       4.72       7.47      -1.39
O       5.68      10.21      -1.45
O       3.40      10.21      -1.37
O       4.87      10.17       1.31
O       2.60      10.30       1.44
O       3.41       7.49       1.35
O       5.68       7.41       1.35
