20

Zn      21.53      10.78       1.43
Zn      21.57      10.78      -1.45
N      21.67      10.70       3.49
N      21.44      10.71      -3.50
O      23.12       9.49       1.03
O      22.84       9.18      -1.20
O      23.14      12.05      -1.17
O      22.87      12.32       1.07
O      20.26      12.35      -1.08
O      19.98      12.08       1.15
O      20.23       9.20       1.18
O      19.95       9.53      -1.04
C      23.39       8.92      -0.08
C      23.41      12.59      -0.05
C      19.72      12.63       0.03
C      19.67       8.95       0.07
C      20.49      10.72       4.18
C      22.82      10.73       4.17
C      22.61      10.74      -4.18
C      20.28      10.75      -4.18
