18

Al       4.28       6.11      18.73
Al       0.94       6.06      18.75
H       2.58       7.63      17.94
H       5.90       4.59      19.63
O       1.57       4.47      17.85
O       4.77       7.48      20.01
O       3.67       5.05      20.21
O       7.11       6.79      17.06
O       3.80       4.74      17.46
O       7.01       7.65      19.67
O       4.89       7.18      17.28
O       1.43       5.28      20.44
O       2.60       6.90      18.57
O       5.93       5.27      18.93
C       2.58       4.89      20.85
C       6.00       7.26      16.64
C       2.67       4.17      17.27
C       5.91       8.00      20.22
