15

Cu      17.35      16.67       2.68
Cu      17.24      19.37       4.59
Cu      19.56      17.31       4.71
C      14.61      17.54       2.27
C      14.67      19.53       3.25
C      20.93      15.20       3.26
C      19.40      14.72       1.73
C      18.71      20.47       6.95
C      20.16      18.80       7.11
N      15.87      18.94       3.42
N      15.83      17.71       2.81
N      18.91      15.68       2.54
N      19.86      15.98       3.48
N      19.43      18.61       6.00
N      18.53      19.64       5.89
