18

Al       9.44       5.46       8.57
Al      12.78       5.50       8.49
H      11.13       6.36      10.02
H       7.77       4.37       7.16
O      11.11       6.06       9.09
C       7.79       7.90       8.27
C       7.77       5.56      10.96
C      11.15       3.04       8.64
C      11.05       5.43       6.11
O       8.91       7.32       8.41
O      13.31       5.57      10.37
O      12.28       3.64       8.66
O       9.96       5.41       6.76
O      10.00       3.58       8.74
O      12.21       5.50       6.63
O      13.31       7.34       8.26
O       8.91       5.46      10.39
O       7.77       4.89       7.99
