118

Ho      13.38       7.73      11.88
Ho      20.08       3.86       9.55
Ho      20.08       3.86       2.41
Ho      13.38       7.73      19.03
Cu      16.73       5.80      14.29
Cu      13.38      11.59      14.29
Cu      10.04       5.80      14.29
Cu      16.73       5.80       7.15
Cu      10.04       5.80       7.15
Cu      13.38      11.59       7.15
H      16.04       3.75      15.49
H      15.50      12.02      15.49
H       8.61       7.42      15.49
H      15.30       4.17       5.95
H       9.35       7.84       5.95
H      15.50      11.17       5.95
H      17.42       7.84      13.10
H      11.27      11.17      13.10
H      11.47       4.17      13.10
H      18.16       7.42       8.34
H      10.73       3.75       8.34
H      11.27      12.02       8.34
C      13.90       5.16      13.30
C      14.45       4.04      14.18
C      14.82       5.20      16.33
C      15.45       6.56      16.60
C      15.35       9.46      13.30
C      16.04      10.49      14.18
C      14.86      10.24      16.33
C      13.37      10.10      16.60
C      10.91       8.56      13.30
C       9.66       8.65      14.18
C      10.48       7.75      16.33
C      11.34       6.52      16.60
C      17.60       3.03       8.14
C      16.36       2.94       7.26
C      17.17       3.84       5.11
C      18.03       5.07       4.84
C       7.21       6.43       8.14
C       7.76       7.55       7.26
C       8.13       6.39       5.11
C       8.76       5.03       4.84
C      15.35      13.73       8.14
C      16.04      12.69       7.26
C      14.86      12.95       5.11
C      13.37      13.08       4.84
C      19.56       6.43      15.29
C      19.01       7.55      14.40
C      18.64       6.39      12.25
C      18.01       5.03      11.98
C      11.42      13.73      15.29
C      10.73      12.69      14.40
C      11.91      12.95      12.25
C      13.40      13.08      11.98
C       9.17       3.03      15.29
C      10.41       2.94      14.40
C       9.60       3.84      12.25
C       8.74       5.07      11.98
C      15.86       8.56       6.15
C      17.11       8.65       7.04
C      16.29       7.75       9.19
C      15.43       6.52       9.46
C      12.87       5.16       6.15
C      12.32       4.04       7.04
C      11.95       5.20       9.19
C      11.32       6.56       9.46
C      11.42       9.46       6.15
C      10.73      10.49       7.04
C      11.91      10.24       9.19
C      13.40      10.10       9.46
N      15.42       4.52      15.17
N      15.14      11.10      15.17
N       9.59       7.57      15.17
N      16.28       4.03       6.27
N       8.73       7.07       6.27
N      15.14      12.09       6.27
N      18.04       7.07      13.42
N      11.63      12.09      13.42
N      10.49       4.03      13.42
N      17.18       7.57       8.02
N      11.35       4.52       8.02
N      11.63      11.10       8.02
O      14.45       6.32      13.39
O      15.04       7.23      17.59
O      16.36       6.99      15.81
O      14.07       9.36      13.39
O      12.99       9.41      17.59
O      12.54      10.67      15.81
O      11.63       7.51      13.39
O      12.12       6.54      17.59
O      11.26       5.52      15.81
O      18.32       4.08       8.05
O      18.82       5.05       3.85
O      17.95       6.07       5.63
O       7.76       5.27       8.05
O       8.35       4.36       3.85
O       9.66       4.60       5.63
O      14.07      13.83       8.05
O      12.99      13.77       3.85
O      12.54      12.51       5.63
O      19.01       5.27      15.19
O      18.42       4.36      10.99
O      17.11       4.60      12.77
O      12.70      13.83      15.19
O      13.78      13.77      10.99
O      14.23      12.51      12.77
O       8.45       4.08      15.19
O       7.95       5.05      10.99
O       8.82       6.07      12.77
O      15.14       7.51       6.25
O      14.65       6.54      10.44
O      15.51       5.52       8.67
O      12.32       6.32       6.25
O      11.73       7.23      10.44
O      10.41       6.99       8.67
O      12.70       9.36       6.25
O      13.78       9.41      10.44
O      14.23      10.67       8.67
