11

Zn      -0.23       8.93      10.54
O      -1.45       9.56      11.93
C      -1.72       6.86       9.54
C       1.45       6.58      11.15
C      -0.90      10.51      12.65
C       2.73       8.35      11.11
N       0.26      10.57       9.44
C       1.00      11.60       9.83
C      -0.24      10.87       8.19
N       1.43       7.89      10.96
O      -1.32       8.02       9.14
