12

O      -7.90       8.88      12.66
C      -5.44       8.72      15.67
In      -6.79       7.27      13.78
O      -5.24       7.48      15.35
C      -8.45       5.91      15.33
C      -8.60       8.04      12.01
O      -7.46       5.31      14.81
O      -5.45       5.73      12.75
O      -8.41       6.78      12.10
C      -4.78       6.63      12.13
O      -5.04       7.87      12.25
O      -8.65       7.16      15.16
