11

Zn       4.49      -1.02      15.52
N       5.70       0.44      16.31
N       5.71      -2.48      14.74
C       5.43       0.97      17.52
O       3.31      -0.67      13.99
C       6.85       0.79      15.69
O       3.32      -1.37      17.06
C       4.02      -0.21      12.98
C       5.43      -3.01      13.53
C       6.85      -2.83      15.35
C       4.02      -1.84      18.07
