18

Al       0.83      17.48      15.56
Al      -2.47      17.37      15.58
H       2.39      15.75      15.12
O      -0.84      18.24      15.37
H      -0.91      18.83      14.60
O      -1.87      16.20      16.96
C       2.55      19.24      17.15
C       2.46      18.84      13.58
C      -0.84      15.59      13.94
C      -0.75      16.08      17.55
O      -3.04      18.57      14.19
O       1.44      18.97      16.58
O       0.34      16.63      17.18
O       1.31      18.42      13.93
O       0.25      15.93      14.50
O      -2.94      18.61      16.94
O       2.45      16.58      15.63
O      -1.99      16.05      14.23
