21

H      11.68       6.28      21.58
Ni      11.01       8.37      22.75
C      13.03       6.15      23.68
C       9.87       7.19      25.21
C       8.04       7.83      23.77
C       9.49       6.00      23.07
C       9.64       6.21      21.57
C      11.04       7.39      19.89
N      12.59       9.44      21.71
N      11.12       9.83      24.19
H      10.34      10.46      23.91
N       9.44       7.30      23.78
N      10.91       6.91      21.30
O       9.53       9.43      21.64
O      12.49       7.31      23.85
C       9.00      10.59      21.81
C      12.15       9.55      20.28
C      13.98       8.91      21.73
C      12.53      10.74      22.42
C      12.38      10.53      23.93
C      10.98       9.35      25.60
