24

Al       8.80       5.63      13.65
Al      11.95       5.94      13.14
Al      10.29       8.45      13.26
O       7.93       6.68      12.24
O       9.42       4.42      12.25
O      12.99       7.00      14.31
O      11.64       4.65      11.84
O      12.66       6.95      11.68
O      11.29       8.77      11.65
O       8.82       8.78      12.18
O       8.28       6.95      15.10
O       9.86       4.76      15.10
O      12.05       4.65      14.46
O      11.81       8.95      14.24
O       9.33       8.95      14.78
O      10.36       6.69      13.34
O       7.41       4.63      13.96
H       6.89       4.85      14.74
C      10.45       4.26      11.54
C      12.11       7.95      11.12
C       8.09       7.82      11.70
C      11.08       4.49      15.30
C      12.66       8.15      14.78
C       8.66       8.09      15.47
