20

Zn       5.56       7.67       8.91
Zn       8.46       7.66       8.91
C       7.04       5.05       8.90
C       7.05      10.28       8.92
C       6.99       7.60       6.32
C       6.99       7.60      11.49
C      11.18       6.63       8.37
C       2.85       8.25       9.91
C      11.19       8.69       9.44
C       2.85       7.06       7.91
N      10.50       7.66       8.91
N       3.53       7.66       8.91
O       5.91       5.60       8.92
O       8.19       9.74       8.94
O       5.91       9.72       8.89
O       8.19       5.58       8.88
O       5.85       7.63       6.89
O       8.12       7.64      10.92
O       5.85       7.66      10.93
O       8.12       7.65       6.90
