16

Zn       3.95       6.98       6.98
Si       0.00       6.98       6.98
C       5.12       6.98       9.81
C       2.78       6.98       4.15
C       5.12       6.98       4.15
N       3.95       9.15       6.98
N       3.95       4.81       6.98
N       3.95       6.98       9.15
N       3.95       6.98       4.81
C       2.78       9.81       6.98
F       1.79       6.98       6.98
F       6.11       6.98       6.98
C       5.12       9.81       6.98
C       2.78       4.15       6.98
C       5.12       4.15       6.98
C       2.78       6.98       9.81
