154

Tb       7.35       4.25       3.98
Tb       7.35      -4.25       3.98
Tb       7.35      -4.25      11.94
Tb       7.35       4.25      11.94
Zn       7.35       0.00       7.96
Zn       3.68       6.37       7.96
Zn      11.03       6.37       7.96
Zn       7.35       0.00       0.00
Zn      11.03       6.37       0.00
Zn       3.68       6.37      -0.00
H       8.11       2.31       7.16
H       5.30       4.56       7.16
H       8.65       5.87       7.16
H       6.60      -2.31       7.16
H       2.06       8.18       7.16
H      13.41       6.87       7.16
H       8.11      -2.31       0.80
H      12.65       8.18       0.80
H       1.30       6.87       0.80
H       6.60       2.31       0.80
H       9.41       4.56       0.80
H       6.06       5.87       0.80
H       6.60      -2.31       8.76
H       2.06       8.18       8.76
H      13.41       6.87       8.76
H       8.11       2.31       8.76
H       5.30       4.56       8.76
H       8.65       5.87       8.76
H       6.60       2.31      -0.80
H       9.41       4.56      -0.80
H       6.06       5.87      -0.80
H       8.11      -2.31      -0.80
H      12.65       8.18      -0.80
H       1.30       6.87      -0.80
C       4.93       1.92       4.85
C       6.55       7.51       4.85
C      10.58       3.31       4.85
C       9.78      -1.92       4.85
C       0.80       5.23       4.85
C      11.49       9.43       4.85
C       4.93      -1.92       3.11
C      13.91       5.23       3.11
C       3.22       9.43       3.11
C       9.78       1.92       3.11
C       8.16       7.51       3.11
C       4.13       3.31       3.11
C       9.78      -1.92      11.07
C       0.80       5.23      11.07
C      11.49       9.43      11.07
C       4.93       1.92      11.07
C       6.55       7.51      11.07
C      10.58       3.31      11.07
C       9.78       1.92      -3.11
C       8.16       7.51      -3.11
C       4.13       3.31      -3.11
C       4.93      -1.92      -3.11
C      13.91       5.23      -3.11
C       3.22       9.43      -3.11
C       6.14       1.68       5.73
C       5.74       6.58       5.73
C      10.18       4.48       5.73
C       8.57      -1.68       5.73
C       1.61       6.16       5.73
C      11.88       8.26       5.73
C       6.14      -1.68       2.23
C      13.10       6.16       2.23
C       2.83       8.26       2.23
C       8.57       1.68       2.23
C       8.97       6.58       2.23
C       4.53       4.48       2.23
C       8.57      -1.68      10.19
C       1.61       6.16      10.19
C      11.88       8.26      10.19
C       6.14       1.68      10.19
C       5.74       6.58      10.19
C      10.18       4.48      10.19
C       8.57       1.68      -2.23
C       8.97       6.58      -2.23
C       4.53       4.48      -2.23
C       6.14      -1.68      -2.23
C      13.10       6.16      -2.23
C       2.83       8.26      -2.23
O       5.21       3.01       3.98
O       7.35       6.72       3.98
O       9.50       3.01       3.98
O       9.50      -3.01       3.98
O      -0.00       6.02       3.98
O      12.56       9.73       3.98
O       9.50      -3.01      11.94
O      -0.00       6.02      11.94
O      12.56       9.73      11.94
O       5.21       3.01      11.94
O       7.35       6.72      11.94
O       9.50       3.01      11.94
O       7.12       2.51       5.63
O       5.97       5.32       5.63
O       8.98       4.91       5.63
O       7.59      -2.51       5.63
O       1.39       7.42       5.63
O      13.09       7.83       5.63
O       7.12      -2.51       2.33
O      13.32       7.42       2.33
O       1.62       7.83       2.33
O       7.59       2.51       2.33
O       8.74       5.32       2.33
O       5.73       4.91       2.33
O       7.59      -2.51      10.28
O       1.39       7.42      10.28
O      13.09       7.83      10.28
O       7.12       2.51      10.28
O       5.97       5.32      10.28
O       8.98       4.91      10.28
O       7.59       2.51      -2.33
O       8.74       5.32      -2.33
O       5.73       4.91      -2.33
O       7.12      -2.51      -2.33
O      13.32       7.42      -2.33
O       1.62       7.83      -2.33
O       6.05       0.69       6.49
O       4.93       7.15       6.49
O      11.09       4.89       6.49
O       8.66      -0.69       6.49
O       2.43       5.58       6.49
O      10.98       7.85       6.49
O       6.05      -0.69       1.47
O      12.28       5.58       1.47
O       3.73       7.85       1.47
O       8.66       0.69       1.47
O       9.78       7.15       1.47
O       3.62       4.89       1.47
O       8.66      -0.69       9.43
O       2.43       5.58       9.43
O      10.98       7.85       9.43
O       6.05       0.69       9.43
O       4.93       7.15       9.43
O      11.09       4.89       9.43
O       8.66       0.69      -1.47
O       9.78       7.15      -1.47
O       3.62       4.89      -1.47
O       6.05      -0.69      -1.47
O      12.28       5.58      -1.47
O       3.73       7.85      -1.47
O       8.49       1.87       7.96
O       4.73       4.45       7.96
O       8.85       6.42       7.96
O       6.22      -1.87       7.96
O       2.63       8.29       7.96
O      13.22       6.32       7.96
O       8.49      -1.87       0.00
O      12.08       8.29      -0.00
O       1.49       6.32       0.00
O       6.22       1.87      -0.00
O       9.98       4.45       0.00
O       5.86       6.42      -0.00
