27

Mg       1.30       6.85       3.47
Mg      -1.00       8.59       4.20
Mg       3.59       7.08       5.34
C      -0.64       5.88       5.68
C       3.95       7.16       2.26
C       1.66       9.48       5.07
C       1.68       4.77       5.62
C      -0.62       7.76       1.32
C      -2.92       9.99       6.07
C       0.43       4.69       1.23
C      -1.87      11.61       3.45
C       2.73       6.23       8.33
O      -0.21       6.82       4.89
O      -2.51       7.37       3.46
O       2.08       8.34       4.66
O      -1.83       5.88       6.11
O       2.76       6.79       2.04
O       0.46       9.86       4.86
O       2.24       5.68       4.81
O      -0.06       8.01       2.51
O      -2.35       8.84       5.68
O       0.42       4.33       0.11
O      -1.88      12.75       3.69
O       2.72       5.44       9.20
O       0.43       5.01       2.36
O      -1.87      10.46       3.16
O       2.73       7.05       7.48
