10

Al       0.02       6.97      12.08
O      -1.04       6.08      10.75
O      -1.04       6.27      13.51
O      -1.04       8.56      11.97
O       1.09       5.38      11.89
O       1.09       7.93      10.80
O       1.09       7.60      13.55
C      -1.98       6.90      14.17
C      -1.98       8.82      11.10
C      -1.98       5.20      10.96
