66

Cd       0.00       0.00       0.00
Cd      -3.31       1.91       5.40
Cd       0.00      -3.82       5.40
Cd       3.31       1.91       5.40
Cd      -0.00       0.00       4.05
Cd       0.00       0.00      -4.05
C      -2.80       1.62       0.92
C      -3.50       2.02       2.05
C       2.80      -2.42       6.62
C       3.50      -1.22       6.62
C       2.80       1.62       0.92
C       3.50       2.02       2.05
C      -3.50      -1.22       6.62
C      -2.80      -2.42       6.62
C       0.00      -3.24       0.92
C       0.00      -4.04       2.05
C       0.69       3.64       6.62
C      -0.69       3.64       6.62
C       3.50      -2.02      -2.05
C       2.80      -1.62      -0.92
C      -2.80      -5.22       4.18
C       3.12       5.04       4.18
C      -5.93       0.18       4.18
C       5.93       0.18       4.18
C      -0.00       3.24      -0.92
C      -0.00       4.04      -2.05
C      -3.12       5.04       4.18
C       2.80      -5.22       4.18
C      -3.50      -2.02      -2.05
C      -2.80      -1.62      -0.92
N      -1.69       0.97       1.34
N      -2.78       1.61       3.12
N       1.69      -2.24       5.88
N       2.78      -0.34       5.88
N       1.69       0.97       1.34
N       2.78       1.61       3.12
N      -2.78      -0.34       5.88
N      -1.69      -2.24       5.88
N       0.00      -1.95       1.34
N       0.00      -3.21       3.12
N       1.09       2.58       5.88
N      -1.09       2.58       5.88
N       2.78      -1.61      -3.12
N       1.69      -0.97      -1.34
N      -1.69      -5.41       4.93
N       3.84       4.17       4.93
N      -5.53       1.24       4.93
N       5.53       1.24       4.93
N      -0.00       1.95      -1.34
N      -0.00       3.21      -3.12
N      -3.84       4.17       4.93
N       1.69      -5.41       4.93
N      -2.78      -1.61      -3.12
N      -1.69      -0.97      -1.34
N      -1.69       0.98       2.67
N       1.69      -0.98       5.44
N       1.69       0.98       2.67
N      -1.69      -0.98       5.44
N       0.00      -1.95       2.67
N      -0.00       1.95       5.44
N       1.69      -0.98      -2.67
N      -1.69       0.98      -5.44
N       0.00      -1.95      -5.44
N       0.00       1.95      -2.67
N       1.69       0.98      -5.44
N      -1.69      -0.98      -2.67
