23

Zn       7.58       9.05      15.57
Zn       7.40      10.85      18.24
Zn       9.05      11.92      15.70
Zn       5.86      11.80      15.61
O       7.48      10.89      16.28
O       7.55       7.72      17.02
O       8.91      11.80      19.07
O      10.27      10.81      14.63
O       7.43       9.01      18.90
O       9.23       8.77      14.54
O      10.06      12.56      17.25
O       8.59      13.49      14.63
O       4.87      10.58      14.43
O       6.30      13.40      14.57
O       6.07       8.65      14.36
O       5.77      11.70      18.92
O       4.65      12.37      17.04
C       7.48       7.90      18.29
C       9.87      12.43      18.50
C      10.19       9.59      14.27
C       7.43      13.92      14.28
C       5.08       9.39      14.04
C       4.79      12.24      18.31
