24

Al       4.53       4.97      13.75
Al       7.72       4.95      13.74
Al       6.30       2.31      13.80
O       5.32       6.19      12.39
O       8.70       3.84      12.52
O       4.94       1.81      12.64
O       3.99       3.84      12.24
O       7.59       6.11      12.31
O       7.46       1.94      12.37
O       5.18       5.95      15.28
O       8.66       4.16      15.18
O       5.32       1.83      15.30
O       3.89       3.56      15.02
O       7.38       6.35      14.94
O       7.81       2.09      14.97
O       6.20       4.06      13.75
H       2.39       5.77      13.15
O       3.02       5.84      13.87
C       6.43       6.39      11.83
C       4.25       2.64      11.94
C       8.31       2.78      11.91
C       4.37       2.62      15.71
C       6.30       6.42      15.65
C       8.43       2.99      15.63
