18

Al       4.89      13.99       5.02
C       3.17      15.33       6.96
Al       1.52      13.98       4.98
C       6.59      12.62       3.05
O       2.04      14.97       6.51
O       5.48      12.87       3.60
O       4.37      15.33       3.71
O       7.70      12.52       6.11
O       4.30      15.10       6.45
O       7.74      12.97       3.45
O       5.42      12.64       6.33
O       2.09      15.43       3.84
O       3.21      13.18       4.88
O       6.57      14.79       5.13
H       3.23      12.35       4.39
H       6.57      15.59       5.67
C       3.23      15.79       3.40
C       6.58      12.17       6.59
