18

Al       5.36      22.48       6.94
O       4.86      23.98       8.05
O       8.15      20.95       5.88
Al       2.06      22.45       7.00
O       4.84      21.18       8.26
O       1.55      23.75       5.68
O       5.89      21.04       5.78
O       2.59      23.88       8.16
O       3.70      22.41       6.15
H       3.67      22.75       5.25
O       6.99      22.52       7.78
H       6.96      22.18       8.69
C       3.72      24.41       8.44
C       7.02      20.52       5.50
C       3.73      20.77       8.71
C       7.03      24.16       5.23
O       2.58      21.19       8.37
O       5.88      23.73       5.57
