18

Zn       8.82       7.02      13.92
Zn       6.07       6.83      14.12
C       2.87       6.58      14.34
C      12.01       7.32      13.65
N      10.85       7.31      13.72
N       4.03       6.56      14.28
O       8.87       4.98      14.10
O       6.08       8.88      14.31
O       6.60       4.87      13.89
O       8.30       9.00      13.78
C       7.76       4.35      14.00
C       7.16       9.51      14.06
C       7.63       6.89      16.62
C       7.24       6.95      11.43
O       8.68       7.16      15.97
O       6.14       7.06      12.08
O       6.47       6.68      16.13
O       8.39       6.79      11.93
