18

O       0.33       1.37       1.22
O      -0.83      -0.81       0.10
Al      -2.50      -0.01       0.00
Al       0.84      -0.01      -0.00
C       2.52      -1.31       2.04
C       2.50      -1.87      -1.55
C      -0.85       1.29      -2.04
C      -0.81       1.84       1.55
O       0.29       1.07      -1.51
O       2.51       0.78      -0.10
O       1.36      -1.40      -1.23
O      -3.01      -0.98       1.60
O      -1.94       1.46       1.12
O      -3.05      -1.48      -1.10
O      -1.99       0.97      -1.59
O       1.39      -1.10       1.50
H       2.51       1.73       0.13
H      -0.84      -1.75      -0.11
