62

O      11.38       7.27      15.99
O      10.15       8.37      17.55
O       6.19       7.33      11.93
O       7.46       8.38      10.37
O       7.63       5.83      13.93
O       4.87       8.43      13.92
O      10.15       5.80      14.01
Zr      10.67       8.03      13.96
O      12.75       8.51      13.93
O       8.87       8.25      15.02
O       8.82       7.72      12.57
Zr       8.81       9.74      16.45
Zr       7.10       7.90      13.98
O      10.13      11.17      17.55
Zr       8.81       9.74      11.49
Zr      10.53      11.59      13.98
Zr       6.97      11.48      13.97
O       7.45      11.07      17.56
O       7.33      11.06      10.41
O      10.11      11.12      10.36
O       6.39      12.31      15.99
O       7.50      13.73      13.96
O       8.79      11.77      12.57
O       8.77      11.22      15.01
O       7.35       9.72      12.93
O      10.84       9.83      15.36
O       6.77       9.68      15.35
O      10.30       9.76      12.91
H       8.81       6.92      12.02
H      11.63       9.84      15.93
H       8.83      12.56      12.01
H       5.99       9.68      15.93
H      13.28       8.16      14.67
H      12.84       9.98      13.89
H      10.40      14.13      14.68
H       8.56      13.79      13.97
H       4.42      11.37      13.23
H       4.79       9.49      13.92
H       7.25       5.36      14.69
H       9.08       5.72      14.00
H       7.19      14.18      13.16
H       4.58       8.13      13.04
H      10.48       5.33      13.23
H      13.05      11.33      13.00
O       6.20      12.26      11.98
O      11.18      12.43      15.98
O      11.43      12.15      11.90
O       4.91      10.96      13.97
O      10.02      13.66      13.92
O      12.75      11.04      13.89
C       6.69       7.37      17.18
C      11.07       7.52      10.75
C      11.02       7.50      17.19
C       6.55       7.55      10.73
C       6.51      11.96      10.76
C      10.91      12.11      17.19
C      11.04      11.93      10.70
C       6.66      12.01      17.19
O       6.43       7.05      15.97
O       7.49       8.30      17.55
O      11.35       7.21      11.95
O      10.25       8.43      10.39
