15

Cu      21.95       6.85       4.79
Cu      24.09       6.92       7.09
C      25.10       9.12       5.46
Cu      22.05       4.49       6.93
C      23.68       8.99       3.77
C      19.62       5.32       3.93
C      25.10       5.32       9.30
C      19.75       3.62       5.34
C      23.80       3.54       9.10
N      24.16       8.20       5.77
N      23.28       8.12       4.72
N      20.64       5.55       4.78
N      20.72       4.50       5.66
N      23.38       4.47       8.21
N      24.19       5.57       8.34
