40

Co      10.74       1.27      16.42
N       8.63       1.23      16.46
N      12.84       1.36      16.37
Co      11.96      -1.27      19.26
N      14.07      -1.23      19.22
N       9.86      -1.36      19.31
H       6.04      -0.47      15.16
H       8.52      -0.40      15.21
H       8.53       2.87      17.72
O      10.74      -0.65      15.96
H       6.07       3.00      17.74
H      12.95       0.04      14.78
H      12.97       2.74      17.92
O      12.04      -1.84      17.37
H      15.41      -0.07      14.74
O      12.02      -1.85      21.30
O      12.08      -3.45      19.77
O      11.96       0.65      19.72
O      10.66       1.84      18.31
H      15.42       2.71      18.06
O      10.68       1.85      14.38
O      10.62       3.45      15.91
C      11.45      -1.67      16.25
C       5.80       1.27      16.44
C       6.54       0.31      15.73
C       7.92       0.33      15.76
C       7.94       2.16      17.16
C       6.55       2.21      17.17
C      15.67       1.30      16.42
C      14.93       0.56      15.49
C      13.54       0.61      15.50
C      13.55       2.11      17.24
C      14.93       2.10      17.31
C      12.11      -3.09      20.99
C      11.25       1.67      19.43
C      14.78      -0.33      19.92
C      14.76      -2.16      18.52
C       9.16      -0.61      20.18
C       9.15      -2.11      18.44
C      10.59       3.09      14.69
