20

Zn       6.51       5.81       0.08
Zn       3.72       5.82       0.04
C       5.33       8.39       0.27
C       5.02       5.47       2.62
C       5.12       3.16      -0.02
C       5.09       6.08      -2.51
C      10.65       5.97       1.05
C       9.34       5.15      -1.13
C       9.26       5.85       1.02
C      10.74       5.29      -1.10
N      11.42       5.71       0.00
N       8.57       5.47      -0.05
O       6.45       7.81       0.49
O       4.22       7.82       0.05
O       3.93       5.80       2.06
O       6.15       5.37       2.05
O       4.01       3.72       0.19
O       6.20       3.78      -0.34
O       6.19       6.25      -1.89
O       3.98       5.77      -1.95
