24

Al      12.41       7.46      12.97
Al      14.11       4.76      13.39
Al      15.60       7.37      13.35
H      10.33       8.41      13.45
C      12.41       4.99      11.22
C      16.47       5.14      11.84
C      14.49       8.73      11.20
C      11.82       5.19      14.90
C      15.90       5.49      15.49
C      14.08       9.06      14.93
O      13.30       8.48      11.55
O      12.00       6.13      11.56
O      15.18       4.58      14.97
O      13.13       4.18      11.92
O      15.62       4.32      12.36
O      16.72       6.31      12.29
O      15.55       8.53      11.90
O      12.99       8.71      14.40
O      11.63       6.34      14.40
O      12.70       4.32      14.51
O      16.34       6.54      14.91
O      15.27       8.79      14.51
O      14.06       6.52      13.25
O      10.91       8.31      12.69
