23

Zn      19.92      11.50       0.65
Zn      18.32       8.72       0.65
Zn      18.32      10.57      -1.96
Zn      16.71      11.50       0.65
O      18.32      10.57      -0.00
O      21.03      10.32       1.76
O      18.32       7.43      -0.83
O      19.90      11.49      -2.69
O      19.90       8.35       1.76
O      21.03      12.14      -0.83
O      18.32       8.75      -2.69
O      16.73      11.49      -2.69
O      17.18      13.06       1.76
O      15.60      12.14      -0.83
O      19.45      13.06       1.76
O      16.73       8.35       1.76
O      15.60      10.32       1.76
C      20.87       9.10       2.09
C      18.32       7.62      -2.09
C      20.87      12.05      -2.09
C      15.76      12.05      -2.09
C      18.32      13.53       2.09
C      15.76       9.10       2.09
