20

Zn       9.75       6.95       9.84
Zn      10.52       9.59       9.87
C      10.16       8.24      12.45
C      12.58       7.36       9.79
C      10.16       8.29       7.24
C       7.72       4.87       9.22
C       7.69       9.13       9.63
C       9.48       4.08      10.52
C      10.78      12.46       9.18
C      12.58      11.67      10.42
N       8.88       5.08       9.86
N      11.40      11.46       9.83
O      10.07       7.12      11.85
O      10.23       9.38      11.89
O      11.73       6.45       9.57
O      12.31       8.57      10.10
O       9.58       7.31       7.81
O      10.73       9.26       7.83
O       7.96       7.96      10.05
O       8.55      10.07       9.48
