11

Zn       8.95      14.78       5.64
C       9.46      17.31       4.84
C      11.06      15.08       7.77
C       6.40      13.83       6.24
O       8.43      16.52       4.91
C      11.35      14.34       3.87
C       9.88      12.55       3.87
N       9.96      14.40       7.37
C       9.62      13.28       8.03
N      10.19      13.79       4.29
O       7.48      13.48       5.59
