21

Cd      -3.77      13.83       0.00
C      -4.94      10.69      -0.27
C      -2.60      16.96       0.27
C      -5.15      11.94      -2.21
C      -2.38      15.72       2.21
N      -2.21      13.85      -1.83
N      -5.33      13.80       1.83
N      -4.67      11.82      -0.96
N      -2.87      15.84       0.96
N      -1.62      11.96       1.67
N      -5.92      15.70      -1.67
O      -1.82      13.13       1.17
O      -5.72      14.52      -1.17
C      -1.18      12.99      -1.82
O      -0.46      11.65       2.02
C      -6.36      14.67       1.82
O      -7.08      16.01      -2.02
O      -2.59      11.15       1.77
O      -4.95      16.50      -1.77
C      -2.44      14.55      -2.95
C      -5.10      13.10       2.95
