20

Zn       9.79      10.38       7.97
Zn       9.68       7.38       7.59
C       9.60       9.52       5.29
C      10.31       4.73       6.10
C       9.15      13.03       9.46
C       8.59       4.43       7.60
C      10.88      13.33       7.95
C       9.86       8.25      10.27
C      12.31       8.66       7.73
C       7.15       9.10       7.82
N       9.44       5.26       7.00
N      10.02      12.50       8.55
O       9.61      10.61       5.94
O       9.85       7.15       9.62
O       9.70       8.36       5.79
O       9.77       9.41       9.77
O      11.77       9.81       7.86
O       7.70       7.95       7.69
O      11.75       7.54       7.60
O       7.72      10.23       7.96
