36

Zn      -2.08       8.85       1.93
N      -4.00       8.68      -2.87
Zn      -4.48       7.64      -0.17
N      -6.32       8.41      -0.84
Zn      -4.48      10.44      -1.86
Zn      -2.07      11.83       0.15
C      -1.06       5.78       1.51
C      -5.82      12.80      -0.77
C      -2.41      11.43      -3.82
C      -4.15       7.93       3.85
C      -4.72       6.60      -2.93
C      -1.89      12.88       3.03
C       0.17      10.33      -1.16
C      -7.57       7.91      -0.80
C      -4.66       8.51      -4.04
C      -2.26      10.99       4.10
C       0.21       8.46       0.01
C      -7.60       9.74      -2.04
C      -1.22      12.94      -2.72
C      -5.73       7.18       2.50
C      -2.29       5.57      -0.32
C      -4.29      13.67       0.57
N      -1.97       6.77       1.50
N      -1.86      10.69       2.85
N      -0.89       9.15       0.36
N      -6.35       9.54      -1.61
N      -2.14      12.45      -1.88
N      -4.91       7.98       1.79
N      -2.73       6.63       0.37
N      -3.98      12.37       0.37
N      -4.93      11.84      -0.45
N      -2.88      11.51      -2.57
N      -3.94       8.45       2.63
N      -4.05       7.50      -2.19
N      -1.64      11.87       2.18
N      -0.91      10.31      -0.37
