44

Zn       6.18      20.51      10.34
C       4.22      18.25      10.52
Zn      12.04      21.48      10.78
C      14.00      23.74      10.61
Zn       3.44      21.12      10.81
Zn      14.79      20.87      10.32
H       8.07      19.02       9.77
N       8.19      19.96      10.15
N      10.03      22.03      10.98
H      10.15      22.97      11.35
H       1.25      22.40      11.10
N       1.38      21.43      10.80
H      -1.25      19.60      10.02
N      -1.38      20.57      10.33
O       5.44      18.53      10.31
O      12.78      23.47      10.82
O       3.28      19.09      10.71
C      13.08      18.57      10.50
O      14.94      22.90      10.42
C       5.14      23.42      10.62
C       5.08      20.65      13.17
O      12.11      19.38      10.63
C      13.15      21.34       7.96
O       6.12      22.61      10.49
O      14.31      18.89      10.35
O       3.91      23.10      10.78
O       3.90      21.01      12.82
O      14.32      20.98       8.30
O       6.05      20.40      12.38
C       4.69      20.93       7.96
O      12.17      21.59       8.74
C      13.53      21.06      13.17
O       5.88      20.63       8.31
O      12.34      21.36      12.82
O       3.71      21.14       8.74
O      14.51      20.85      12.38
C       8.94      19.86      11.43
C       9.28      22.13       9.70
C       8.98      20.75       9.15
C       9.24      21.25      11.97
C       0.68      20.52      11.74
C      -0.68      21.47       9.38
C       0.83      21.28       9.42
C      -0.83      20.71      11.70
