11

O       8.98      11.43       5.31
Cd       9.56      10.00       6.99
O       8.98       8.56       8.68
C      10.98      10.88       9.74
C       8.06      12.04       5.97
C      12.14      11.69       7.91
C       8.06       7.96       8.01
N      11.17       9.09       5.58
N      11.17      10.90       8.41
C      10.98       9.11       4.24
C      12.14       8.30       6.07
