11

Zn       5.45       4.64       8.05
C       4.13       7.23       8.05
C       4.13       4.64      10.64
C       4.13       4.64       5.45
C       4.12       2.05       8.05
N       7.70       4.64       8.05
N       8.80       4.64       8.05
O       5.27       6.66       8.05
O       5.27       4.64      10.08
O       5.27       4.64       6.02
O       5.27       2.62       8.05
