27

S       6.37       8.62      12.57
S       5.75       6.10      15.13
Cu       9.86       7.33      15.03
Cu       6.65       7.22      16.88
Cu       4.73       7.33      13.47
Cu       7.94       7.22      11.62
N      10.64       6.09      16.38
Mo       7.30       7.45      14.25
N       2.07       8.27      14.36
N       5.52       9.05      17.56
N       3.95       6.09      12.12
N       3.19       8.27      14.13
N       9.07       9.05      10.93
C       6.57       5.51      19.52
C       8.02       5.51       8.98
C       6.66       6.21      18.48
C      11.95       6.00      16.68
C       9.78       5.27      17.02
C       4.73       9.85      16.85
C       5.77       9.38      18.84
C       7.93       6.20      10.02
C       2.64       6.00      11.82
C       4.81       5.27      11.47
C       9.86       9.85      11.65
C       8.82       9.38       9.65
S       8.22       8.62      15.93
S       8.85       6.10      13.36
