18

Al       5.92       6.02       8.30
Al       2.60       6.04       8.32
H       4.23       7.64       7.72
H       7.61       4.45       9.05
O       3.11       6.27      10.17
O       5.35       5.96      10.13
C       7.62       5.89       5.87
O       4.26       6.66       7.74
C       7.56       8.45       8.44
O       2.09       5.86       6.47
O       3.16       4.21       8.30
C       4.29       3.61       8.24
O       5.40       4.20       8.07
O       6.44       7.84       8.51
O       2.03       7.87       8.33
O       6.49       6.04       6.47
C       4.25       6.21      10.75
O       7.59       5.41       8.89
