48

Zn      12.58       9.60      11.17
Zn       5.10      15.32      13.75
Zn      16.33      11.18      15.32
Zn       8.84      13.75       9.60
C      12.79      12.33       9.70
C      20.28      12.59      15.22
C      16.53       9.70      12.59
C       9.05      15.22      12.33
C      11.89      13.36       9.47
C      19.38      11.56      15.46
C      15.63       9.47      11.56
C       8.15      15.46      13.36
C      10.77      11.60      10.06
C      18.26      13.33      14.86
C      14.51      10.06      13.32
C       7.03      14.86      11.60
C       2.63      16.12      12.10
C      10.12       8.80      12.82
C       6.38      12.11       8.80
C      13.87      12.82      16.12
C       3.39      14.16      11.57
C      10.88      10.76      13.36
C       7.14      11.57      10.76
C      14.63      13.36      14.16
C      11.30       7.48       9.47
C       3.81      17.45      15.45
C      15.04       9.47      17.45
C       7.55      15.45       7.48
C      13.45       7.19       9.55
C       5.96      17.74      15.37
C      17.20       9.55      17.74
C       9.71      15.37       7.18
N      12.06      11.22      10.08
N      19.55      13.71      14.84
N      15.81      10.08      13.71
N       8.32      14.84      11.22
N      10.62      12.88       9.69
N      18.10      12.04      15.24
N      14.36       9.69      12.04
N       6.87      15.24      12.88
N       3.68      15.28      12.31
N      11.17       9.64      12.61
N       7.43      12.31       9.64
N      14.91      12.61      15.28
N      12.42       7.96      10.03
N       4.93      16.96      14.89
N      16.16      10.03      16.96
N       8.67      14.89       7.96
