18

Al       7.06       6.35      16.90
O       4.21       7.60      15.59
Al      10.50       6.37      16.91
O       6.48       7.58      18.25
H       8.77       8.12      17.12
H       5.33       4.60      17.12
O       9.94       5.20      15.51
O       7.62       5.15      18.30
O       7.67       5.12      15.58
O       9.90       5.10      18.24
O       4.20       7.56      18.32
O       6.48       7.53      15.52
O       8.78       7.17      16.93
O       5.34       5.55      16.92
C       5.35       7.88      18.76
C       5.34       7.90      15.09
C       8.81       4.82      15.08
C       8.77       4.79      18.73
