20

Zn       2.99       4.96       8.85
Zn       5.79       4.94       8.64
C       4.29       2.36       8.75
C       4.53       7.55       9.00
C      -1.27       5.63       9.53
C       0.33       4.28       7.89
C       0.11       5.70       9.71
C      -1.06       4.19       7.73
C       4.14       5.36       6.17
C       4.60       4.86      11.35
N       0.90       5.00       8.87
N      -1.85       4.89       8.58
O       3.19       2.95       8.48
O       5.62       7.01       8.64
O       5.42       2.95       8.83
O       3.45       6.91       9.25
O       3.03       5.37       6.81
O       5.67       5.14      10.73
O       5.27       5.04       6.66
O       3.50       4.50      10.81
