23

Zn      16.22      16.20      22.41
Zn      17.63      15.41      25.17
Zn      15.79      18.01      25.03
Zn      14.45      15.09      24.84
C      18.85      14.84      22.56
C      18.25      17.92      26.63
O      16.02      16.18      24.36
O      17.92      15.39      21.88
C      16.08      19.15      22.31
C      13.77      14.63      21.98
O      18.89      14.71      23.84
O      16.20      18.04      21.69
O      18.61      16.79      26.16
O      17.15      18.51      26.37
O      15.98      19.32      23.57
O      14.04      18.25      25.88
O      14.78      15.25      21.49
O      17.21      13.91      26.35
O      13.53      14.46      23.23
O      13.16      16.13      25.90
O      14.98      13.56      25.95
C      13.16      17.37      26.21
C      16.12      13.26      26.46
