13

O      11.27      13.47      12.85
O       9.75      14.26      14.26
Co       9.33      12.96      12.46
C      10.97      14.14      13.92
C       7.52      14.44      10.66
C       9.03      15.85      11.69
N       8.51      14.61      11.56
C      10.60      12.09       9.96
C       8.76      10.79      10.46
O       7.17      12.19      12.73
C       7.69      11.47      13.64
N       9.56      11.82      10.79
O       8.96      11.50      13.84
