20

Zn       5.82       5.77       8.57
Zn       5.65       8.78       8.60
C       5.91       7.38       5.97
C       3.14       7.16       8.69
C       5.58       7.29      11.18
C       8.34       7.23       8.47
C       4.80      11.63       7.97
C       6.54      11.54       9.55
C       6.70       2.92       9.19
C       4.94       3.01       7.63
N       5.70      10.91       8.69
N       5.79       3.64       8.48
O       5.75       6.26       6.55
O       5.72       8.49       6.57
O       3.62       8.32       8.48
O       3.79       6.09       8.89
O       5.32       8.39      10.59
O       6.11       6.29      10.59
O       7.84       6.05       8.35
O       7.70       8.32       8.57
