23

Zn      18.84       9.10       7.74
Zn      15.61       8.95       7.60
Zn      17.13      11.79       7.59
Zn      17.08      10.01      10.24
C      17.38       6.94       6.35
C      19.72       8.81      10.56
C      19.71      11.46       6.20
C      14.64       8.37      10.33
C      14.65      11.26       6.06
C      16.96      12.96      10.26
O      16.20       7.30       6.71
O      18.47       7.53       6.62
O      18.74       9.42      11.10
O      19.87       8.56       9.32
O      18.66      12.17       6.41
O      19.97      10.33       6.71
O      15.66       8.84      10.94
O      14.42       8.44       9.08
O      15.53      12.08       6.49
O      14.58      10.02       6.31
O      17.19      13.15       9.02
O      16.69      11.85      10.81
O      17.16       9.96       8.28
