11

Zn       2.26       4.40      11.71
C       3.06       1.80      11.92
O       3.65       2.95      11.91
C       2.07       4.68       8.75
C       0.23       3.73      13.83
C       2.56       7.14      11.33
C       0.75       3.08       9.41
N       1.23       4.51      13.40
O       3.28       6.11      11.61
C       1.66       5.25      14.48
N       1.56       4.03       9.85
