14

Zn      14.91      -3.90       8.64
Zn      16.38      -4.93       6.84
O      15.29      -6.61       7.18
C      14.14      -6.51       7.72
C      17.11      -5.48       9.56
O      14.04      -2.90       7.12
O      14.98      -4.25       5.55
O      16.36      -2.49       8.75
O      17.27      -3.12       6.76
O      15.95      -5.07       9.91
O      17.60      -5.43       8.38
C      14.18      -3.32       5.92
O      13.66      -5.46       8.27
C      17.14      -2.32       7.75
