18

Mg       3.90      12.90       6.24
Mg       1.62      12.71       8.05
C       3.56      15.01       8.43
Mg       6.19      11.24       6.98
C       5.85      12.08       4.06
C       5.87      13.92       8.44
C       1.29      12.63       5.00
O       7.06      13.88       8.89
O       5.46      13.03       7.58
O       3.00      14.12       7.59
O       4.77       9.93       7.58
O       3.17      11.48       7.50
O       7.58      10.93       8.43
C       8.13       9.75       8.78
O       2.49      13.04       4.81
O       7.75      12.33       6.19
C       3.58      10.30       7.83
O       5.29      11.80       5.25
