18

C       5.66      12.75       7.63
C       7.88      11.22       4.19
Fe       7.68      10.50       7.11
Fe       3.23      11.90       6.40
Fe       5.45      10.58       5.54
O       6.33       8.99       6.45
O       8.56      12.08       8.03
O       4.10      11.91       4.57
O       3.72       9.88       6.29
O       5.95      11.50       7.34
O       8.17      11.60       5.41
O       8.97       9.07       7.79
O       4.52      13.20       7.29
O       6.74      10.70       3.97
C       5.78       8.01       7.16
C       8.00      13.19       8.53
C       3.54      11.78       3.35
C      10.11       9.01       7.23
