24

Al       8.79       2.93       0.02
Al       7.31       5.79      -0.01
Al       5.60       3.32      -0.02
O       7.98       1.89      -1.46
O       8.50       6.19      -1.36
O       4.72       4.33      -1.35
O       9.41       4.03       1.52
O       6.06       6.25       1.35
O       5.64       2.07       1.35
O       7.90       1.85       1.42
O       8.57       6.14       1.31
O       4.72       4.42       1.27
O       7.21       4.03      -0.01
H      10.62       1.69      -0.77
O       9.51       4.14      -1.40
O       5.96       6.24      -1.28
O       5.70       1.98      -1.30
O      10.22       1.95       0.07
C       6.81       1.63      -1.86
C       6.75       1.74       1.91
C       9.16       5.19       1.95
C       5.17       5.47       1.83
C       9.26       5.28      -1.88
C       5.07       5.48      -1.79
