18

Al       1.34      17.17       6.16
O       4.14      15.80       5.01
O       0.80      18.52       7.41
Al       4.68      17.15       6.26
O       1.85      15.99       7.61
O      -1.48      18.33       4.81
O       1.88      15.88       4.84
O      -1.45      18.44       7.58
O       0.80      18.31       4.69
O       4.13      16.01       7.73
O       3.01      17.96       6.19
O      -0.32      16.35       6.24
H       3.01      18.89       6.47
H      -0.32      15.43       5.95
C       2.97      15.69       8.13
C      -0.37      18.63       4.29
C       3.03      15.45       4.51
C      -0.31      18.86       7.92
