18

Al       5.92       5.56      10.06
Al       9.26       5.56      10.07
O       7.59       4.76       9.97
H       4.24       7.30       9.93
H       7.59       3.82      10.19
C       4.25       3.72      11.64
C       7.59       7.40       8.49
C       4.24       4.26       8.03
C       7.58       6.86      12.10
O       9.78       4.52       8.53
O       6.44       6.59      11.60
O       5.38       4.13      11.22
O       8.73       6.98       8.90
O       5.39       4.53       8.51
O       8.73       6.59      11.62
O       6.45       6.98       8.88
O       9.79       4.14      11.25
O       4.25       6.35      10.16
