24

C       5.50       3.17       1.84
C       1.50       3.42       2.34
Al       1.46       0.97       0.63
Al       4.63       0.96       0.17
Al       3.24       3.60       0.17
O       0.71       2.14      -0.81
O       1.96      -0.28      -0.83
O       4.20      -0.38      -1.05
O       5.47       1.78      -1.31
O       4.33       3.74      -1.37
O       1.87       4.07      -0.98
O       1.06       2.28       2.01
O       2.40      -0.09       2.03
O       4.62      -0.26       1.58
O       5.71       2.00       1.33
O       4.73       4.02       1.22
H      -0.18      -0.71       0.51
O       3.11       1.85       0.32
O       2.22       4.20       1.62
O      -0.08       0.18       0.88
C       3.01      -0.61      -1.47
C       5.05       2.83      -1.91
C       1.00       3.22      -1.41
C       3.58      -0.39       2.34
