23

C       4.64       4.62      10.07
C       4.54       4.49       2.85
Zn       2.95       4.61       5.30
Zn       4.56       2.98       7.60
Zn       4.52       6.19       7.58
Zn       6.13       4.42       5.34
O       6.07       7.28       7.10
O       4.58       3.47       9.52
O       5.61       4.17       3.47
O       4.65       5.75       9.50
O       3.42       4.74       3.41
O       1.69       3.19       5.85
O       7.24       6.03       5.58
O       6.13       1.82       7.42
O       2.90       7.28       7.36
O       4.53       4.57       6.47
O       7.22       2.83       5.70
O       1.93       6.28       5.56
O       3.01       1.88       7.18
C       7.10       1.94       6.60
C       1.95       7.10       6.53
C       1.92       2.16       6.57
C       7.03       7.07       6.29
