23

Zn       7.98       1.63       5.33
Zn       9.56       0.03       7.66
Zn       6.38       0.00       7.59
Zn       8.00      -1.55       5.26
C       7.95       0.09       2.84
C       5.49       2.61       6.56
C      10.52      -2.52       6.50
C      10.56       2.53       6.44
C       5.43      -2.49       6.34
C       7.92       0.00      10.08
O       8.18      -1.05       3.38
O       6.83      -0.24       9.47
O       6.50       2.84       5.82
O      10.66      -1.58       7.35
O       8.00       0.02       6.46
O       9.64       2.67       5.57
O      10.71       1.60       7.29
O       6.42      -2.70       5.56
O       5.21      -1.48       7.08
O       5.29       1.63       7.34
O       9.58      -2.67       5.65
O       7.72       1.19       3.45
O       9.06       0.22       9.54
