18

Al       3.92       3.71       6.01
Al       7.22       3.70       6.04
H       5.55       5.19       6.99
H       2.23       3.14       4.38
O       3.45       3.17       7.78
O       1.11       5.60       5.88
O       6.62       3.75       4.20
O       4.56       1.92       5.75
O       4.39       4.17       4.20
O       6.73       1.88       6.30
O       1.26       3.71       7.83
O       3.31       5.49       6.34
C       2.34       3.30       8.38
C       2.24       6.15       6.22
C       5.53       4.10       3.63
C       5.62       1.28       6.16
O       5.57       4.28       6.64
O       2.26       3.16       5.35
