22

La       2.30      21.35      30.90
C       3.72      22.50      28.53
La      -1.54      21.37      30.90
C      -0.11      20.22      28.53
O       2.07      23.77      31.40
O      -1.77      18.94      31.40
O       0.28      20.90      32.54
O       4.11      21.81      32.54
O       4.39      22.58      29.64
O       0.56      20.13      29.64
O       2.54      22.03      28.53
O      -1.29      20.69      28.53
C       0.86      19.85      33.03
C       4.70      22.87      33.03
O       2.03      19.54      32.65
O      -1.80      23.18      32.65
C       0.16      19.01      34.03
C       3.99      23.71      34.03
O       0.22      23.01      30.42
O       4.05      19.70      30.42
C       0.88      23.97      30.99
C       4.72      18.75      30.99
