20

Zn       5.99       5.12       5.49
Zn       3.20       5.18       5.50
H       8.59       5.52       6.23
H      10.45       5.93       5.60
C       4.60       4.81       8.08
C       8.74       4.28       4.74
C       4.58       7.73       5.60
C      10.23       4.16       4.81
C       4.71       5.34       2.88
C       4.65       2.48       5.16
N       8.05       5.01       5.52
N      10.97       5.10       5.33
O       5.73       5.04       7.53
O       3.49       4.68       7.50
O       5.70       7.13       5.48
O       3.48       7.17       5.93
O       5.82       4.99       3.47
O       3.64       5.64       3.53
O       5.77       3.02       5.43
O       3.55       3.13       5.05
