34

Zn       0.53      -0.75       8.89
Zn      -0.53      -3.25      11.34
Zn      -2.36      -1.01      10.97
Zn       2.37      -2.99       9.25
C       0.70      -5.89      11.58
C      -0.69       1.89       8.65
C       2.63       0.22       6.90
C      -2.63      -4.22      13.32
C      -4.28      -2.88      12.70
C       4.29      -1.12       7.52
C      -2.79       1.53       9.25
C       2.79      -5.53      10.97
C       3.27      -4.77       7.10
C      -3.26       0.77      13.12
C       2.43      -0.49      11.14
C      -2.42      -3.51       9.08
N      -0.63      -2.33       8.57
N      -0.77       0.68       9.24
N       2.24      -0.49       7.97
N      -2.23      -3.51      12.26
C      -0.96      -3.05       7.48
N       3.25      -1.32       8.36
N      -2.07       0.45       9.60
N       0.63      -1.67      11.65
N      -3.25      -2.67      11.87
N       2.08      -4.45      10.62
N       2.30      -3.89       7.48
N      -2.29      -0.11      12.74
N       1.54      -1.40      10.64
N      -1.53      -2.60       9.58
N      -1.91      -0.86      13.82
N       1.91      -3.14       6.40
N       0.77      -4.68      10.98
C       0.96      -0.95      12.74
