52

Tb       3.69       3.68      12.29
Tb       6.66       6.67      19.56
Tb       3.68       6.66      15.92
Tb       6.67       3.69       8.66
H       1.08       2.26      12.32
H       9.28       8.09      19.58
H       2.26       9.28      15.95
H       8.09       1.08       8.68
H       2.14       1.29      11.64
H       8.22       9.06      18.91
H       1.29       8.22      15.28
H       9.06       2.14       8.01
C       4.27       7.14      12.80
C       6.09       3.21       5.53
C       7.14       6.09      16.43
C       3.21       4.27       9.16
C       5.14       1.15      10.42
C       5.21       9.21      17.68
C       1.15       5.21      14.05
C       9.21       5.14       6.78
C       6.05       7.13       8.13
C       4.31       3.23      15.40
C       7.13       4.31      11.77
C       3.23       6.05      19.03
O       4.04       5.90      12.66
O       6.31       4.46       5.39
O       5.90       6.31      16.29
O       4.46       4.04       9.03
O       5.98       1.71       9.64
O       4.38       8.65      16.91
O       1.71       4.38      13.28
O       8.65       5.98       6.01
O       4.30       1.73      11.17
O       6.05       8.62      18.44
O       1.73       6.05      14.81
O       8.62       4.30       7.54
O       6.10       7.73       7.01
O       4.25       2.63      14.28
O       7.73       4.25      10.64
O       2.63       6.10      17.91
O       6.35       5.90       8.28
O       4.01       4.46      15.55
O       5.90       4.01      11.92
O       4.46       6.35      19.18
O       4.16       7.76      13.91
O       6.20       2.60       6.64
O       7.76       6.20      17.54
O       2.60       4.16      10.28
O       1.97       1.87      12.40
O       8.39       8.48      19.67
O       1.87       8.39      16.04
O       8.48       1.97       8.77
