18

Al       1.46      18.96      18.26
C       3.11      17.15      16.62
Al       4.79      18.95      18.21
C      -0.22      20.76      19.85
C       3.14      17.59      20.24
O       4.26      17.88      19.72
C      -0.19      20.32      16.23
O       0.94      20.03      16.75
O       2.00      17.58      17.04
O      -1.33      20.33      19.42
O       1.99      17.88      19.77
O      -1.34      20.04      16.70
O       0.93      20.34      19.49
O       4.26      17.57      16.98
O       3.13      19.77      18.16
O      -0.20      18.15      18.31
H       3.15      20.68      18.48
H      -0.18      17.23      17.99
