15

C      17.96       2.51       4.11
C      18.01       4.04       2.51
Cu      20.27       5.64       3.45
Cu      22.48       5.67       5.73
Cu      20.24       3.41       5.70
C      23.38       4.06       8.01
C      21.78       2.53       8.03
N      22.49       7.00       4.45
N      21.55       6.97       3.45
N      18.99       4.32       3.39
N      18.96       3.37       4.38
N      21.53       3.39       7.01
N      22.53       4.34       7.00
C      21.82       7.97       2.59
C      23.33       8.03       4.20
