55

C       5.50      13.61       3.70
N      11.70       9.13       0.18
Zn       9.89      11.04       8.64
N      11.63      11.91       9.60
Zn      11.04       9.89       2.03
C      13.74       6.69       6.24
C       6.69      13.74       4.42
N      11.91      11.63       1.06
Zn      10.70      10.70       5.33
O      11.28       9.99       7.35
C      13.01       7.82       6.63
C       7.82      13.01       4.04
H       6.55      11.37       1.35
O       9.99      11.28       3.32
H      11.37       6.55       9.32
O      10.88      12.65       5.93
C      10.22      13.34       6.77
O      12.65      10.88       4.74
C      13.34      10.22       3.90
H       4.52      12.68       2.02
H      12.68       4.52       8.65
O       9.58      12.91       7.78
H      14.15       4.60       6.63
H       4.60      14.15       4.03
O      12.91       9.58       2.89
C       7.83      11.68      10.78
O      10.56       8.70       4.92
H      14.39       6.73       5.37
H       6.73      14.39       5.30
C      11.68       7.83      -0.11
O       8.70      10.56       5.75
C       9.98      12.43      11.26
O      10.40       8.05       2.74
H      13.08       8.75       6.07
H       8.75      13.08       4.60
C      12.43       9.98      -0.59
O       8.05      10.40       7.93
O      10.60       8.90       9.17
O       8.90      10.60       1.50
C      11.40      12.43      10.83
C      12.43      11.40      -0.16
C      12.87      11.89       9.11
C      12.78       5.45       8.09
C      11.89      12.87       1.56
C       5.45      12.78       2.58
C      12.14       7.76       7.73
C       7.76      12.14       2.94
C      10.40       7.85       4.00
C      12.05       6.57       8.47
C       6.57      12.05       2.20
C       7.85      10.40       6.67
C      11.29       8.93       8.11
C       8.93      11.29       2.56
N       9.13      11.70      10.49
C      13.61       5.50       6.96
