10

Al       3.94      14.52      16.77
O       2.89      15.47      18.07
O       2.89      15.17      15.30
O       2.89      12.92      16.94
O       4.98      16.12      16.94
O       4.98      13.58      18.07
O       4.98      13.87      15.30
C       1.97      14.52      14.71
C       1.97      12.74      17.80
C       1.97      16.31      17.80
