20

Zn       3.36       5.49       5.50
Zn       6.07       5.45       5.51
C       4.71       5.45       2.88
C       4.72       5.49       8.13
C       4.72       8.10       5.45
C       4.72       2.84       5.56
C      -0.77       4.61       6.28
C       0.62       6.33       4.72
C      -0.77       6.33       4.73
C       0.62       4.61       6.28
N       1.30       5.47       5.50
N      -1.45       5.47       5.51
O       3.58       5.48       3.45
O       5.86       5.46       7.56
O       3.59       5.51       7.55
O       5.84       5.43       3.46
O       3.57       7.54       5.44
O       5.86       3.40       5.57
O       3.59       3.43       5.53
O       5.84       7.51       5.47
