23

Zn      25.14      18.01      14.07
Zn      26.84      16.50      16.29
Zn      26.77      19.67      16.17
Zn      28.36      18.10      13.87
O      26.82      18.05      15.09
O      24.06      16.42      14.44
O      26.90      17.00      18.20
O      25.18      20.80      15.93
O      25.22      15.40      16.11
O      23.97      19.53      14.49
O      26.84      19.27      18.08
O      28.29      20.80      15.71
O      27.79      18.12      11.98
O      29.53      19.67      14.18
O      25.52      18.09      12.16
O      28.38      15.36      15.85
O      29.47      16.50      14.22
C      24.24      15.49      15.30
C      26.86      18.16      18.72
C      24.16      20.57      15.21
C      29.32      20.65      14.97
C      26.61      18.13      11.49
C      29.34      15.53      15.04
