9

Zn      -1.26      -1.46      18.29
N      -0.08      -3.18      18.27
C      -0.17      -4.02      19.32
C       0.76      -3.47      17.27
C       1.00      -0.13      19.73
C      -1.05       0.16      20.81
N      -0.32      -0.38      19.81
I      -0.87      -0.12      16.17
I      -3.50      -2.25      19.29
