18

O       5.15       1.47       1.11
O       8.46      -1.45      -1.14
Al       2.34       0.00       0.04
Al       5.66       0.00      -0.03
O       2.88       1.42       1.22
O       6.19       1.27      -1.38
O       6.19      -1.44      -1.19
O       5.12      -1.31       1.26
O       3.98      -0.02      -0.82
O       7.30       0.02       0.83
O       2.86      -1.30       1.35
O       8.45       1.34      -1.23
H       3.96       0.48      -1.66
H       7.27      -0.48       1.66
C       4.01      -1.74       1.69
C       7.33       1.74      -1.69
C       4.02       1.92       1.49
C       7.33      -1.92      -1.49
