23

Zn      27.36      13.98      11.90
Zn      25.71      16.72      11.88
Zn      28.94      16.74      11.81
Zn      27.32      15.78       9.24
O      27.31      15.80      11.20
O      25.82      16.79       8.48
O      28.84      13.62      13.11
O      24.63      15.56      13.05
O      29.99      17.37      10.30
O      26.15      18.27      13.00
O      27.11      13.93       8.57
O      28.42      18.29      12.88
O      27.46      12.65      10.44
O      25.67      13.56      12.82
O      28.95      16.52       8.46
O      24.60      17.26      10.35
O      30.03      15.56      12.93
C      24.83      17.30       9.10
C      29.85      14.37      13.35
C      24.75      14.31      13.27
C      29.87      17.18       9.04
C      27.30      18.75      13.27
C      27.29      12.83       9.20
