18

Al       0.80      10.58       9.21
Al       4.13      10.64       9.19
H       2.52       8.85       9.12
H      -0.82      12.21       8.47
C       2.40      12.43      10.75
C       2.50      12.00       7.23
C      -0.83       8.75       7.67
C      -0.93       9.39      11.24
O       3.63      11.53       7.55
O       1.28      11.87      10.55
O       0.17       9.44      10.62
O       1.40      11.80       7.81
O       0.32       9.24       7.91
O       3.50      12.17      10.17
O       2.48       9.80       9.32
O      -1.94       9.10       8.18
O      -2.04       9.88      10.89
O      -0.85      11.41       9.03
