11

Zn       4.36      14.99      15.30
O       3.45      16.76      15.36
N       5.45      14.69      17.00
C       6.52      15.67      13.35
O       2.85      13.76      15.11
C       3.15      12.49      15.10
C       5.17      13.67      17.84
N       5.49      14.84      13.60
C       5.26      13.82      12.74
C       6.51      15.48      17.27
C       4.25      17.77      15.46
