23

Zn       3.87       7.86       8.72
O       5.66       7.95       7.91
Zn       3.26       6.35      11.48
O       3.56       6.13       9.57
Zn       5.13       4.98       9.34
O       3.80       9.32      10.05
Zn       2.00       5.31       8.72
O       5.91       4.41      11.03
O       6.54       5.89       8.31
O       3.33       8.25      11.99
O       2.57       8.27       7.33
O       4.68       3.36       8.31
O       4.56       5.40      12.58
O       1.46       5.72      11.99
O       1.22       6.43       7.33
O       0.59       4.94      10.05
O       2.45       3.58       7.91
C       6.63       7.09       7.81
C       5.55       4.67      12.23
C       3.56       9.34      11.32
C       0.50       5.16      11.32
C       1.58       7.58       6.90
C       3.56       2.91       7.81
