13

Zn      -1.44       5.65       2.72
O      -0.34       5.71       0.83
C      -0.48       8.10       4.14
O      -1.30       3.58       2.66
O      -1.76       5.26       4.76
C       0.78       5.67       1.44
C      -1.39       3.06       3.81
C      -4.45       5.95       2.76
C      -1.65       4.02       5.02
N      -3.39       5.68       1.97
C      -2.25       8.63       2.74
N      -1.38       7.72       3.22
C      -3.62       5.33       0.69
