15

Cu       4.43       3.22      12.30
Cu       5.77       4.53      14.88
Cu       3.16       5.84      13.56
C       6.66       1.38      12.68
C       7.60       2.29      14.47
N       6.52       3.02      14.14
N       5.94       2.46      13.03
N       2.93       3.95      11.52
C       2.21       3.60      10.45
N       2.38       5.10      12.06
N       5.03       6.05      15.63
C       5.38       6.78      16.71
N       3.91       6.61      15.07
C       1.31       5.44      11.31
C       3.57       7.68      15.80
