62

Zr      14.97       1.18       1.82
Zr      18.57       1.00       1.63
Zr      14.76      -0.92      -1.06
Zr      18.28      -1.01      -1.26
Zr      16.65       2.11      -1.16
Zr      16.66      -1.99       1.73
H      16.70       0.25       3.73
H      19.58       1.52      -0.93
H      16.58      -3.18      -0.94
H      13.81       1.71      -0.77
H      21.13       1.78       1.19
H      20.80      -2.04      -1.29
H      18.19      -1.95      -3.74
H      16.28      -2.24      -3.03
H      12.20      -1.39      -0.62
H      12.62       0.25       0.61
H      14.80       3.06       3.62
H      19.28       1.89       4.12
H      14.91      -1.63      -3.68
H      12.47       0.32       2.23
H      19.01       3.16       3.21
H      20.84      -0.94      -2.45
C      14.60       4.09       0.32
C      18.97      -1.38       3.90
C      18.82       4.06       0.21
C      14.39      -1.46       3.91
C      14.30      -3.79       0.42
C      18.73       1.33      -3.55
C      18.94      -3.85       0.37
C      14.46       1.40      -3.43
O      14.34       3.32       1.29
O      15.40       3.87      -0.65
O      19.28      -0.22       3.48
O      18.12      -2.18       3.39
O      19.05       3.30       1.21
O      18.08       3.78      -0.80
O      13.97      -0.38       3.38
O      15.39      -2.16       3.52
O      15.03       2.12       3.58
O      12.73       0.85       1.45
O      18.61       2.33       3.57
O      20.57       1.08       1.56
O      16.75       1.80       0.86
O      16.73       0.14       2.77
O      13.93      -2.94      -0.47
O      15.21      -3.64       1.29
O      19.01       0.15      -3.14
O      17.93       2.15      -3.02
O      19.29      -3.00      -0.52
O      17.98      -3.72       1.20
O      14.19       0.23      -3.00
O      15.26       2.25      -2.90
O      15.24      -2.17      -2.93
O      12.72      -0.57      -0.69
O      17.80      -2.25      -2.91
O      20.62      -1.10      -1.51
O      16.57      -2.27      -0.60
O      16.59       0.08      -1.53
O      15.22      -0.78       0.93
O      18.76       1.10      -0.61
O      14.61       1.26      -0.46
O      18.17      -0.87       0.84
