44

Zn       3.46       5.46       5.60
Zn      -6.05       4.73       4.87
C      -0.71       5.29       6.98
Zn       6.22       4.86       5.09
C       8.80       3.36       5.04
Zn      -3.29       5.24       5.47
C       5.13       5.81       7.85
C      -0.72       6.64       4.97
C       8.78       5.36       3.69
C      -4.38       2.48       4.52
C      -0.63       4.23       4.80
C       8.88       5.53       6.11
N       1.37       5.46       5.61
C       4.53       2.66       6.00
C      -4.98       4.33       7.67
N      10.87       4.72       4.87
N      -1.20       5.36       5.57
C       0.83       5.48       7.00
N       8.31       4.76       4.97
C      10.34       3.33       4.85
C       0.90       4.20       4.95
O       6.08       5.47       7.08
O      -3.43       3.25       4.86
C      10.41       5.38       6.13
C       0.82       6.62       4.86
O       5.71       2.94       5.62
O      -3.79       4.71       7.39
C      10.33       5.47       3.71
O       3.61       3.49       6.28
O      -5.90       4.05       6.84
O       3.92       6.03       7.51
O      -5.59       2.82       4.30
O      -3.39       5.77       3.46
O       6.12       6.87       4.56
C      -4.38       5.69       2.67
O      -5.58       5.41       2.99
O       3.92       7.34       4.92
C       5.13       7.66       4.64
O      -5.92       6.66       5.61
O       3.58       4.72       3.67
O      -3.74       7.22       5.92
C       4.53       4.51       2.84
C      -4.98       7.50       5.82
O       5.76       4.41       3.12
