24

Al       1.44       0.89       0.08
Al       4.66       0.94       0.03
Al       3.21       3.57      -0.03
C       3.31      -0.67      -1.76
C       5.27       2.98      -1.90
C       1.23       3.15      -1.92
C       3.31      -0.46       2.02
C       5.34       3.04       1.80
C       1.27       3.28       1.89
O       0.95       1.99      -1.51
O       2.19      -0.40      -1.25
O       4.47      -0.37      -1.28
O       5.61       1.89      -1.32
O       4.47       3.86      -1.42
O       1.94       4.03      -1.29
O       0.84       2.22       1.36
O       2.16      -0.11       1.61
O       4.42      -0.32       1.37
O       5.65       1.89       1.33
O       4.61       3.91       1.22
O       2.10       4.11       1.35
O       3.13       1.81       0.02
O      -0.10       0.08       0.13
H      -0.31      -0.50      -0.62
