24

Al       1.79       0.96      28.42
Al       3.44       3.73      28.48
Al       5.01       1.17      28.45
C       1.49       3.24      30.38
C       5.51       3.25      30.36
C       3.73      -0.39      30.34
C       1.49       3.33      26.57
C       5.58       3.27      26.63
C       3.72      -0.36      26.53
O       5.92       2.17      29.80
O       4.87      -0.12      29.78
O       2.56      -0.09      26.96
O       1.16       2.21      27.05
O       2.26       4.20      27.13
O       4.78       4.11      27.19
O       5.94       2.15      27.13
O       4.83      -0.13      27.13
O       3.43       1.96      28.46
O       2.59      -0.19      29.83
O       1.19       2.10      29.93
O       2.18       4.15      29.78
O       4.70       4.09      29.85
O       0.30       0.05      28.37
H      -0.07      -0.21      29.22
