13

C       6.13       7.16      13.48
O       4.97       7.64      13.34
C       2.14       4.97      11.29
C       3.98       6.56      16.22
Cd       4.14       5.33      13.11
N       4.66       3.08      12.92
N       3.62       5.53      15.37
C       5.71       2.53      13.53
O       1.89       5.06      12.54
O       6.38       5.90      13.39
C       2.57       4.92      15.92
C       4.29       2.23      11.88
O       3.31       5.11      10.80
