20

Zn       6.02       5.19      22.05
Zn       3.19       5.07      22.16
C       4.72       2.54      21.92
C       4.48       5.50      19.55
C       4.55       7.78      22.31
C       4.68       4.92      24.75
C      10.20       4.46      21.31
C       8.79       6.02      22.97
C       8.83       4.58      21.21
C      10.24       5.92      23.05
N      10.94       5.13      22.22
N       8.08       5.33      22.04
O       5.79       3.22      21.67
O       3.58       3.07      22.14
O       3.41       5.10      20.09
O       5.59       5.73      20.10
O       3.45       7.17      22.16
O       5.68       7.18      22.54
O       5.77       4.75      24.09
O       3.55       5.15      24.20
