18

Al       1.22      21.55      19.41
O       2.87      20.71      19.41
Al       4.54      21.48      19.29
O      -0.45      22.32      19.28
H       2.81      19.82      19.03
H      -0.51      23.21      19.67
C       2.86      22.91      17.36
C      -0.47      20.12      21.33
C       2.93      23.30      20.98
C      -0.39      19.73      17.71
O       4.02      22.87      20.49
O       0.69      20.16      18.20
O       1.74      22.67      17.91
O       5.06      20.36      20.79
O       1.76      22.92      20.65
O       5.09      20.12      18.05
O       0.69      20.48      20.93
O       4.01      22.55      17.76
