10

Al       3.93       3.96       6.86
O       2.88       4.61       8.32
O       2.88       2.36       6.69
O       2.87       4.89       5.57
O       4.99       3.33       8.33
O       4.98       5.56       6.66
O       4.99       3.01       5.58
C       1.94       2.17       5.84
C       1.95       3.97       8.92
C       1.94       5.73       5.81
