14

Zn       9.52      21.71      14.37
Zn      10.89      20.36      16.22
C       8.54      19.13      15.75
C      11.04      19.97      13.09
C       9.11      22.74      16.89
O      10.09      20.74      12.71
O      11.32      19.71      14.30
O      11.41      22.49      14.45
O      12.51      21.47      16.14
O       8.86      23.06      15.68
C      12.43      22.34      15.18
O       9.79      21.73      17.27
O       8.34      20.20      15.09
O       9.61      18.87      16.41
