18

O       4.28       2.41      16.52
O       0.95       0.79      16.66
Al       2.59       1.65      16.62
Al       5.93       1.54      16.57
C       4.22      -0.13      14.89
C       0.89       3.33      18.29
H       4.33       3.35      16.74
H       1.00      -0.16      16.44
C       4.23       0.08      18.47
C       0.90       3.11      14.71
O       5.37       0.34      17.95
O       2.03       2.86      15.23
O       3.10       0.31      15.31
O       6.44       2.88      17.87
O       3.12       0.58      18.10
O       6.45       2.62      15.08
O       2.05       2.98      17.91
O       5.38       0.21      15.28
