10

Al       4.04       3.37       5.83
O       2.94       2.46       4.56
O       2.94       2.71       7.25
O       2.94       4.92       5.69
O       5.12       1.81       5.49
O       5.12       4.44       4.65
O       5.12       3.85       7.35
C       1.99       3.27       7.89
C       1.99       5.20       4.88
C       1.99       1.63       4.71
