14

Zn       6.24       1.44      11.58
Zn       6.21      -1.15      11.63
C       4.47       0.14      13.50
C       7.98       0.15       9.70
O       7.64      -0.86      13.03
O       4.82      -1.01      13.08
O       7.63       1.31      10.12
O       4.86       1.26      13.04
O       7.59      -0.97      10.16
O       4.77      -1.13      10.20
O       7.68       1.42      13.00
C       4.41       0.01       9.75
O       4.81       1.15      10.17
C       8.04       0.28      13.45
