23

Zn      20.11       9.73       0.82
Zn      20.79      11.23      -1.92
Zn      18.88      12.62       0.27
Zn      22.01      12.32       0.82
O      20.45      11.47      -0.00
O      20.21       8.28      -0.50
C      20.45       8.29      -1.75
C      17.41      10.52       1.75
O      19.46      12.20      -2.97
O      18.34       9.66       1.66
C      22.43      10.02       2.65
O      20.68       9.34      -2.42
C      18.47      12.93      -2.65
C      23.48      12.43      -1.74
O      21.44       9.36       2.21
O      22.56      11.89      -2.42
O      17.47      11.69       1.27
O      18.13      13.17      -1.45
O      19.35      14.25       1.26
O      22.76      11.17       2.21
O      21.55      14.03       1.66
O      23.42      12.66      -0.50
C      20.45      14.66       1.75
