32

Zr       8.45       7.53      14.36
Zr      10.42       7.53      17.00
Zr       6.50       8.07      17.00
Zr       4.53       8.07      14.36
C       4.76       6.55      19.24
C       6.27       6.54      12.12
C      10.19       9.06      12.12
C       8.68       9.06      19.24
C       9.44       4.81      15.68
C       5.51      10.79      15.68
C       9.44      10.30      15.68
C       5.52       5.30      15.68
O       6.55       8.09      14.87
O       4.48       8.09      16.49
O       8.40       7.51      16.49
O      10.47       7.51      14.87
O      11.50       6.44      18.62
O       7.37       6.44      12.75
O       3.45       9.16      12.75
O       7.58       9.16      18.62
O       5.74       7.28      18.88
O       5.29       7.28      12.48
O       9.21       8.32      12.48
O       9.66       8.32      18.88
O       8.79       5.40      14.75
O      10.09       5.40      16.61
O       6.17      10.20      16.61
O       4.86      10.20      14.75
O       8.78       9.71      14.76
O      10.10       9.71      16.60
O       6.18       5.89      16.60
O       4.86       5.89      14.76
