23

Zn       6.62       7.26       8.54
Zn       4.11       6.72      10.38
Zn       4.05       9.04       8.16
Zn       5.80       9.36      10.86
O       3.65      10.87       8.75
C       4.59       7.76      13.06
C       5.97       8.55       5.98
C       5.56       4.53       9.10
C       4.22      11.57       9.66
C       1.78       7.35       8.82
C       8.54       8.53      10.40
O       5.14       8.12       9.49
O       2.21       7.08       9.99
O       7.75       9.38      10.95
O       2.44       7.90       7.88
O       8.17       7.55       9.67
O       6.34       5.31       8.45
O       5.08      11.16      10.50
O       4.44       6.69      12.33
O       4.97       9.21       6.43
O       4.93       8.90      12.60
O       6.74       7.79       6.66
O       4.61       4.89       9.87
