10

Al       3.97      35.78      12.39
C       1.98      37.64      11.44
C       1.98      35.68      14.48
C       1.98      34.02      11.26
O       2.90      34.92      11.05
O       2.90      35.04      13.81
O       2.90      37.37      12.33
O       5.04      34.20      12.17
O       5.04      36.77      11.14
O       5.04      36.37      13.88
