20

O      14.59       0.93      10.53
O      14.39       0.75       8.29
Co      14.74       2.93      10.40
O      14.93       4.92      10.23
Co      14.57       2.74       8.11
O      14.78       4.74       7.99
C      17.26       2.66       8.86
C      12.07       3.02       9.62
C      14.41       0.24       9.46
C      14.93       5.43       9.06
C      16.13       1.97      12.95
C      15.35       4.12      13.18
C      13.80       1.53       5.39
C      13.41       3.81       5.48
N      15.44       3.00      12.45
N      13.90       2.70       6.06
O      16.77       2.74      10.03
O      16.56       2.56       7.79
O      12.57       2.93       8.45
O      12.76       3.10      10.69
