35

Zn      14.64      11.06       0.78
Zn      15.01       6.72      -0.24
Zn      17.20       9.14      -0.43
Zn      12.03       8.40       0.37
N      15.58      11.38      -0.89
N      14.37       7.06       1.64
N      10.31       8.95       1.26
N      15.52       7.37      -2.11
N      13.17       6.02      -0.93
N      15.87      10.41       2.09
N      17.06       6.37       0.24
N      12.79      11.38       0.39
N      16.67       8.10      -2.11
N       9.25       9.48       0.53
N      13.06       7.50       1.82
N      16.85      10.95      -1.29
N      12.38      10.30      -0.37
N      18.03       7.35       0.16
N      16.86       9.63       1.55
N      12.25       7.02      -1.06
C      15.02      12.05      -1.92
C      14.52       5.95       2.41
C      10.63       9.81       2.26
C      15.72       6.30      -2.93
C      12.88       5.09      -1.86
C      16.27      10.84       3.31
C      17.58       5.35       0.94
C      12.16      12.49      -0.07
C      17.59       7.47      -2.87
C      12.45       6.66       2.69
C      17.01      11.34      -2.57
C      11.48      10.76      -1.26
C      19.13       6.92       0.82
C      17.86       9.58       2.45
C      11.41       6.71      -2.06
