23

Zn      23.28      18.74      17.01
Zn      21.71      19.68      14.32
Zn      20.06      18.68      16.87
Zn      21.53      21.47      16.95
O      21.67      19.63      16.28
O      24.47      18.18      15.55
O      20.21      18.76      13.43
O      20.51      17.09      17.92
C      24.34      18.31      14.28
C      19.25      18.16      14.02
O      23.37      18.87      13.66
O      22.79      17.14      18.04
C      24.04      21.13      18.54
O      23.04      21.80      18.14
O      24.31      19.92      18.21
O      19.90      21.76      17.99
O      21.54      22.83      15.54
O      21.70      21.53      13.66
C      21.64      16.63      18.29
O      19.09      18.06      15.27
C      18.93      20.98      18.28
C      21.62      22.65      14.27
O      18.81      19.75      17.93
