17

Zn       0.97      10.85      14.68
Zn       1.16      10.86      17.67
C       2.90      12.63      16.46
C       2.74       8.93      15.74
C      -0.69       9.05      16.67
C      -0.61      12.82      15.94
O       2.48      12.11      15.39
O       2.57      12.29      17.65
O       2.47       9.39      16.89
O       2.22       9.31      14.64
O      -0.22       9.41      17.80
O      -0.44       9.59      15.55
O      -0.27      12.41      14.78
O      -0.21      12.34      17.05
C      -0.26      10.67      11.79
C       2.02      10.94      11.71
N       0.91      10.83      12.45
