20

Cu       4.37       9.00      18.60
C       4.55      11.88      18.91
Cu       2.45      10.18      19.77
C       2.27       9.87      16.89
C       2.27       7.30      19.45
C       4.55       9.32      21.47
O       5.16      10.83      18.50
O       1.67      10.29      17.94
O       1.66       8.35      19.87
O       5.16       8.89      20.42
O       3.41      11.90      19.48
O       3.41       9.29      16.87
O       3.41       7.28      18.88
O       3.41       9.89      21.49
O       6.24       8.18      17.73
O       0.59      11.00      20.63
H       6.46       7.48      17.10
H       0.36      11.70      21.26
H       7.07       8.51      18.13
H      -0.24      10.67      20.23
