23

Zn      23.27      18.74      16.99
Zn      21.71      19.66      14.30
Zn      20.06      18.67      16.85
Zn      21.52      21.45      16.93
O      21.66      19.62      16.25
O      24.44      18.22      15.51
O      20.25      18.66      13.44
O      20.46      17.04      17.87
C      24.36      18.35      14.23
O      22.75      17.14      18.00
C      21.61      16.60      18.25
O      23.38      18.90      13.59
C      24.02      21.14      18.53
C      19.23      18.14      14.02
O      24.30      19.94      18.18
O      21.63      21.50      13.58
O      19.02      18.13      15.27
O      18.86      19.77      17.93
C      21.59      22.63      14.21
C      18.93      21.01      18.27
O      23.01      21.80      18.15
O      19.89      21.82      17.96
O      21.56      22.77      15.49
