23

Zn      22.28       7.84       0.57
Zn      23.84      10.60       0.77
Zn      25.54       7.92       0.72
Zn      23.94       8.81      -1.94
C      21.25      10.14       2.02
C      26.37      10.30       2.21
C      23.91       5.87       2.01
C      26.56       7.46      -1.99
C      21.47       7.28      -2.18
C      23.87      11.71      -1.93
O      23.92       8.78       0.02
O      20.96       9.05       1.41
O      25.49      11.06       1.69
O      25.05       6.17       1.51
O      22.38      10.71       2.08
O      22.85       6.56       1.97
O      26.49       9.04       2.01
O      26.83       7.55      -0.74
O      22.33       8.05      -2.72
O      25.44       7.67      -2.55
O      21.38       6.99      -0.94
O      23.41      11.77      -0.75
O      24.23      10.66      -2.57
