33

Co       4.36       5.84       0.57
Co       5.42      12.64      -0.57
Co       4.89       9.24       0.00
C       2.68       7.93       1.78
C       7.10      10.55      -1.78
C       4.62      11.96       1.69
C       5.17       6.52      -1.69
C       6.53       7.43       1.89
C       3.26      11.05      -1.89
O       3.34       8.91       1.34
O       6.45       9.57      -1.34
O       4.52       4.01       1.68
O       5.27      14.47      -1.68
O       2.79       6.70       1.38
H       3.68       3.64       1.99
O       7.00      11.78      -1.38
H       6.11      14.84      -1.99
O       2.56       4.74      -0.39
H       5.05       4.27       2.46
O       7.22      13.74       0.39
H       4.74      14.22      -2.46
O       6.31       8.53       1.30
H       2.00       5.50      -0.17
O       3.48       9.95      -1.30
H       7.79      12.98       0.17
O       5.85       6.34       1.75
H       2.75       4.79      -1.34
O       3.94      12.14      -1.75
H       7.04      13.70       1.34
O       5.22      11.08       0.97
O       4.57       7.40      -0.97
O       4.50      13.14       1.21
O       5.29       5.34      -1.21
