18

Al       5.99       5.96       8.38
Al       2.66       5.96       8.38
H       4.32       7.50       7.55
H       7.65       4.42       9.21
O       6.55       7.80       8.41
O       8.75       6.03       6.55
O       3.16       4.12       8.14
O       5.49       6.10      10.24
O       5.42       4.12       8.35
O       3.22       5.89      10.21
O       8.81       7.79       8.62
O       6.49       5.81       6.52
C       7.69       8.37       8.50
C       7.63       5.85       5.96
C       4.28       3.54       8.26
C       4.34       6.06      10.80
O       4.32       6.57       7.83
O       7.65       5.35       8.93
