20

Zn       6.10       5.13       7.90
Zn       3.38       5.10       7.91
C       4.48       7.68       7.55
C       4.95       4.75       5.34
C      10.35       5.50       6.95
C      10.37       4.40       8.91
C       8.94       4.38       8.91
C       8.95       5.52       6.96
C       4.60       2.54       8.21
C       4.92       5.56      10.45
N      11.09       4.98       7.91
N       8.22       4.98       7.93
O       5.61       7.11       7.51
O       3.34       7.09       7.50
O       6.11       4.81       5.88
O       3.83       4.72       5.95
O       5.73       3.14       8.19
O       3.46       3.10       8.26
O       6.06       5.56       9.88
O       3.78       5.55       9.87
