10

Al       1.09      15.19       8.81
C       3.22      15.19      10.84
C       3.22      13.44       7.80
C       3.22      16.94       7.79
O       2.22      16.18       7.60
O       2.22      15.75      10.27
O       2.23      13.67       8.57
O      -0.05      16.72       8.57
O      -0.04      14.20       7.59
O      -0.05      14.63      10.26
