11

Zn       8.18       6.04       4.29
N       6.59       7.26       3.86
C      10.56       7.84       3.79
C      10.02       7.53       6.02
O       8.46       5.30       2.45
C       6.91       4.47       6.09
O       7.90       5.30       6.14
C       5.80       7.84       4.79
C       6.34       7.53       2.56
C       9.45       4.47       2.49
N       9.77       7.26       4.72
