20

Zn       8.05       9.65       8.91
Zn       8.10       6.87       8.91
C       8.24       8.28      11.52
C       8.18       8.26       6.30
C       7.15      12.39       9.62
C       9.05       4.15       8.21
C       8.97      12.36       8.18
C       7.22       4.14       9.64
C       5.46       8.23       8.98
C      10.71       8.29       8.85
N       8.05      11.70       8.90
N       8.13       4.82       8.92
O       8.12       9.41      10.95
O       8.10       7.13       6.87
O       8.19       7.14      10.94
O       8.10       9.39       6.87
O       6.01       9.37       8.96
O      10.16       7.13       8.83
O       6.04       7.09       8.99
O      10.12       9.42       8.87
