23

Zn      18.40       7.28       8.86
Zn      16.90       4.40       8.68
Zn      18.66       5.49       6.20
Zn      20.08       4.52       8.84
O      18.49       5.44       8.16
O      16.74       7.55       9.88
C      15.79       6.73      10.14
C      18.52       8.44       6.13
O      18.63       7.32       5.52
O      18.43       8.61       7.40
C      20.89       6.94      10.39
O      15.89       3.75       7.12
O      15.70       5.51       9.77
C      16.15       3.91       5.88
O      19.92       7.70      10.05
O      17.37       2.82       9.76
C      18.52       2.40      10.14
O      17.15       4.52       5.39
O      20.29       4.65       5.52
O      21.07       5.74      10.01
O      21.32       3.95       7.44
O      19.66       2.92       9.88
C      21.24       4.09       6.17
