11

Zn      17.27       5.42      18.15
C      19.65       4.90      19.55
C      14.89       4.90      16.76
O      18.67       4.29      18.96
C      19.71       6.32      16.68
N      18.38       6.49      16.87
O      15.87       4.30      17.35
C      14.83       6.32      19.64
N      16.16       6.49      19.45
C      18.06       7.58      16.10
C      16.48       7.58      20.21
