18

Al       5.33       8.17      20.50
O       4.79       6.84      19.22
Al       2.00       8.17      20.45
O       1.46       9.49      21.74
O       5.86       9.34      19.08
O       2.53       7.00      21.88
O       3.66       8.98      20.44
O       6.99       7.36      20.52
H       3.65       9.87      20.82
H       6.98       6.46      20.14
C       3.65       6.66      22.38
C       6.98       9.68      18.58
C       3.68       6.46      18.75
C       7.01       9.88      22.21
O       2.53       6.87      19.14
O       5.86       9.47      21.81
O       4.80       7.00      21.95
O       8.13       9.34      19.00
