11

Zn       1.51       3.06       3.78
O       2.72       1.77       2.96
C       3.00       3.76       5.97
C      -0.17       2.13       6.03
C      -1.45       2.41       4.28
C       2.18       1.19       1.93
N       1.02       4.37       2.31
C       0.28       4.14       1.24
C       1.52       5.66       2.19
N      -0.15       2.50       4.75
O       2.59       4.31       4.88
