23

Zn       5.86       3.53       4.26
Zn       3.38       5.57       4.18
Zn       5.43       5.66       6.69
Zn       3.49       3.16       6.30
C       1.00       4.18       5.19
C       8.11       4.86       5.71
C       4.94       4.85       1.81
C       4.34       4.20       8.97
C       4.12       8.06       5.53
C       4.87       0.89       5.04
O       4.55       4.51       5.35
O       3.43       7.47       4.65
O       3.96       1.34       5.82
O       4.90       7.53       6.39
O       5.68       1.58       4.34
O       5.78       4.08       2.37
O       3.75       3.34       8.23
O       1.53       4.88       4.26
O       7.40       5.63       6.45
O       1.56       3.44       6.04
O       7.67       3.96       4.92
O       3.90       5.38       2.29
O       5.05       5.18       8.55
