18

Al       0.02      11.90       0.02
Al      -3.37      11.86      -0.02
H      -1.69      10.09       0.03
H       1.73      13.67      -0.02
C       1.73      10.25       1.81
C       1.73      10.25      -1.82
C      -1.69      13.51      -1.82
C      -1.68      13.51       1.82
O       0.58      10.69       1.39
O       2.86      10.65      -1.38
O      -2.81      13.13      -1.34
O      -0.56      13.14       1.34
O      -0.54      13.09      -1.38
O      -2.82      13.07       1.38
O       2.84      10.62       1.33
O       0.59      10.65      -1.34
O      -1.67      11.06      -0.00
O       1.72      12.70       0.00
