18

Al       0.98      11.52       9.39
Al       4.30      11.50       9.35
H       2.63       9.79       9.11
H      -0.71      13.21       9.66
O       1.57      12.62       7.92
O       4.79      10.64      11.00
C       2.62      13.40      10.88
C      -0.65       9.61       7.87
C       2.67      12.70       7.25
C      -0.74      10.32      11.49
O       0.48      10.15       8.12
O       3.72      13.04      10.34
O       2.63      10.68       9.51
O      -0.69      12.34       9.23
O       3.81      12.30       7.68
O       0.39      10.48      10.89
O       1.49      12.87      10.64
O      -1.76       9.97       8.38
