20

Zn       6.16       5.41       7.64
Zn       3.47       5.42       7.66
C       4.66       2.79       7.57
C       4.75       8.04       7.73
C      10.29       6.16       6.75
C       8.90       4.69       8.53
C      10.29       4.71       8.55
C       8.90       6.13       6.73
C       4.98       5.26      10.28
C       4.89       5.54       5.02
N       8.22       5.40       7.62
N      10.97       5.45       7.66
O       5.78       3.39       7.47
O       3.62       7.46       7.63
O       5.87       7.45       7.85
O       3.52       3.37       7.66
O       6.11       5.21       9.68
O       3.76       5.41       5.60
O       6.01       5.67       5.61
O       3.84       5.35       9.70
