23

Zn       9.08       8.53      10.88
Zn       9.10      10.90       8.74
Zn       6.74      10.67      10.81
Zn       6.94       8.50       8.47
O       7.96       9.62       9.70
O       8.46      12.75       8.94
O       7.49       6.61       8.64
O       7.31      12.54      10.90
O       8.58       6.65      10.64
O      10.99       8.80      10.52
O       5.01       8.60       8.88
O       9.19      10.37       6.86
O       6.76      10.02      12.67
O       7.33       9.06       6.62
O       8.75       8.92      12.79
O      10.90      10.84       9.52
O       4.92      10.51      10.11
C       8.37       9.67       6.18
C       7.70       9.44      13.30
C      11.53       9.85      10.04
C       4.38       9.53       9.49
C       7.86      13.23       9.97
C       8.09       6.05       9.62
