40

Tb       1.33       9.05       8.83
Tb      -1.33      11.71       1.77
Tb      -1.33       9.05       5.30
Tb       1.33      11.71      12.36
C       0.84      12.49       9.40
C      -0.84       8.26       2.34
C       2.12       9.53       5.87
C      -2.12      11.22      12.94
C      -0.84      12.49       4.73
C       0.84       8.26      11.79
C      -2.12       9.53       8.26
C       2.12      11.22      15.32
C       0.00       6.49       7.07
C       0.00      14.27      14.13
C      -3.89      10.38       3.53
C       3.89      10.38      10.60
O       0.86       7.07       7.80
O       1.01      11.23       9.29
O       2.72       9.41       6.99
O      -0.86      13.68      14.87
O      -1.01       9.52       2.22
O      -2.72      11.34      14.05
O      -3.31       9.52       4.27
O       0.86       9.36       5.75
O      -0.97       7.66       3.46
O       3.31      11.24      11.33
O      -0.86      11.39      12.82
O       0.97      13.09      10.52
O      -0.86       7.07       6.33
O      -1.01      11.23       4.84
O      -2.72       9.41       7.14
O       0.86      13.68      13.39
O       1.01       9.52      11.91
O       2.72      11.34      14.21
O       3.31       9.52       9.86
O      -0.86       9.36       8.38
O       0.97       7.66      10.68
O      -3.31      11.24       2.80
O       0.86      11.39      15.44
O      -0.97      13.09       3.61
