15

C      17.22      20.83       8.42
C      19.12      19.71       8.24
N      14.84      20.69       4.52
N      14.96      19.97       3.36
N      17.45      17.25       3.32
N      18.48      17.14       4.23
N      18.33      19.38       7.18
Cu      15.97      20.26       5.91
N      17.16      20.09       7.31
Cu      18.46      18.26       5.71
Cu      16.19      18.60       3.39
C      14.24      20.60       2.40
C      14.07      21.76       4.29
C      19.28      16.13       3.82
C      17.63      16.33       2.36
