13

Zn       5.01       0.01      20.16
N       4.39       1.54      21.28
C       4.86       1.87      22.51
C       3.87      -1.50      17.79
C       3.58       2.58      20.90
C       7.61       1.53      19.77
N       3.69      -0.53      18.76
N       5.39      -1.63      21.24
C       2.47      -0.01      18.52
C       4.95      -1.97      22.46
C       6.01      -2.76      20.74
C       7.34       0.01      18.25
N       6.73       0.58      19.30
