20

Zn       2.86       7.78      14.06
Zn       2.83       7.79      16.85
C       1.66       7.87      19.57
C       3.99       7.93      19.56
C       3.99       8.15      11.34
C       1.74       7.58      11.33
N       2.82       7.87      18.89
N       2.87       7.83      12.01
O       1.67       6.13      16.44
O       4.02       9.44      16.47
O       4.52       6.53      16.61
O       1.17       9.06      16.55
O       1.20       6.55      14.26
O       4.51       9.02      14.29
O       4.03       6.16      14.42
O       1.67       9.41      14.37
C       1.10       5.86      15.34
C       4.61       9.70      15.37
C       4.64       5.89      15.51
C       1.05       9.69      15.45
