28

Co      10.93      -2.66       4.61
H      15.40      -4.57       3.58
H       6.46      -4.57       3.58
H      15.40      -0.81       5.75
H       6.47      -0.81       5.75
H      12.93      -4.47       3.61
H       8.93      -4.47       3.61
H      12.93      -0.88       5.67
H       8.94      -0.88       5.67
C      14.92      -3.72       4.06
C       6.95      -3.72       4.06
C      14.92      -1.65       5.25
C       6.95      -1.65       5.25
C      10.93      -1.46       2.52
C      13.53      -3.68       4.06
C       8.33      -3.68       4.06
C      13.53      -1.67       5.22
C       8.34      -1.67       5.22
C      15.66      -2.69       4.66
C       6.21      -2.69       4.66
C      10.93      -5.49       5.68
C      10.93      -2.17       7.59
N      12.85      -2.67       4.63
N       9.02      -2.67       4.63
O      10.93      -4.56       4.73
O      10.93      -1.81       6.31
O      10.93      -0.85       3.65
O      10.93      -2.74       2.56
