14

O       1.68       9.29       1.38
O      -0.56       6.71      -1.48
O      -0.60       9.25       1.47
Zn       1.36       8.02      -0.03
O       1.72       6.76      -1.45
O       0.62       6.51       1.28
Zn      -1.35       7.97      -0.00
O      -1.76       9.40      -1.25
C      -0.51       6.08       1.65
C      -0.64       9.88      -1.67
C       0.54       9.68       1.85
C       0.59       6.33      -1.89
O      -1.66       6.51       1.25
O       0.52       9.49      -1.33
