19

C       5.69       0.81      10.51
Zn       5.13       0.00      13.54
N       6.37      -1.71      12.88
N       3.89       1.71      14.20
N       6.89       0.28      14.59
N       3.38      -0.28      12.49
N       7.37       1.20      15.45
N       2.89      -1.20      11.63
N       4.24      -1.11      15.31
N       6.02       1.11      11.78
C       6.03      -2.61      11.95
C       4.23       2.61      15.13
C       7.62      -1.73      13.43
C       2.65       1.73      13.65
C       7.85      -0.66      14.40
C       2.41       0.66      12.69
C       3.15      -1.87      15.11
C       7.11       1.87      11.98
C       4.58      -0.81      16.58
