24

Al      -1.82       6.66      13.36
Al      -0.37       9.52      13.42
Al       1.36       7.07      13.46
O      -2.38       7.74      11.77
O      -2.69       7.93      14.60
O       1.01       9.96      14.66
O       1.14       5.79      14.82
O      -1.12       5.76      14.95
O      -1.51       9.84      14.83
O       2.24       8.08      14.78
O      -0.26       7.76      13.40
O       0.83      10.01      12.05
H      -3.36       5.08      12.55
C       0.36       5.18      11.75
O       1.44       5.71      12.21
C      -2.33       8.98      11.52
C       1.78       9.28      11.61
O      -0.82       5.41      12.15
C      -2.37       8.97      15.23
C       0.03       5.50      15.40
O      -3.26       5.69      13.29
O      -1.73       9.89      12.20
C       1.85       9.21      15.24
O       2.19       8.19      12.12
