19

Zn       1.71       3.91       6.77
N       2.95       4.19       8.58
N       0.47       3.63       4.96
N       3.47       4.68       6.00
N      -0.04       3.14       7.54
N       3.95       4.96       4.78
N      -0.53       2.85       8.76
N       0.82       5.99       6.85
N       2.60       1.82       6.69
C       2.61       3.83       9.83
C       0.81       3.98       3.72
C       4.19       4.68       8.32
C      -0.77       3.14       5.22
C       4.43       4.98       6.91
C      -1.01       2.84       6.63
C      -0.27       6.20       7.61
C       3.69       1.62       5.93
C       1.15       6.94       5.95
C       2.27       0.88       7.59
