12

C      13.58       2.66      15.57
O      15.23       2.36      12.61
Zn      15.08       0.67      13.83
C      12.95      -0.21      11.90
C      17.98       0.21      13.37
N      14.48       1.65      15.52
O      15.11      -1.26      14.57
C      15.56       2.32      11.38
C      15.36      -2.32      13.90
C      15.01       1.58      16.77
O      17.12       0.75      14.14
O      13.19       0.33      13.03
