15

N      13.04      14.19      22.57
N      12.95      12.83      22.79
C      13.93      14.40      21.59
C      13.77      12.21      21.92
N      10.69      16.35      24.40
Cu      11.04      14.45      26.38
Cu      12.16      12.27      24.37
Cu      11.89      15.28      23.51
N      11.59      11.75      26.05
N      11.39      12.74      26.99
C      11.20      12.15      28.18
C      11.50      10.56      26.67
C       9.85      17.32      24.01
N      10.44      16.07      25.73
C       9.47      16.90      26.16
