24

Al       8.20       4.79      13.82
Al      11.38       5.11      13.90
Al       9.71       7.61      13.79
O       7.51       5.89      12.34
O       9.00       3.70      12.40
O      12.26       6.20      15.19
O      11.27       3.79      12.57
O      12.28       6.10      12.53
O      11.04       8.01      12.48
O       8.51       7.94      12.42
O       7.51       6.08      15.12
O       8.97       3.76      15.26
O      11.23       3.90      15.28
H       6.07       3.94      13.28
C      10.17       3.55      11.94
O      10.96       8.05      15.15
C      11.86       7.17      11.97
O       8.45       8.11      15.06
O       9.78       5.85      13.81
O       6.72       3.83      13.98
C       7.80       7.02      11.85
C      10.09       3.63      15.84
C      11.80       7.27      15.72
C       7.78       7.18      15.70
