18

Al       4.66      12.25       4.29
C       3.02      13.81       2.48
Al       1.34      12.23       4.31
C       2.96      13.86       6.09
C       6.29      10.62       6.10
C       6.36      10.67       2.48
O       1.83      13.35       5.80
O       1.92      13.52       3.05
O       4.17      13.38       2.82
O       4.07      13.60       5.53
O       5.24      10.93       3.03
H       6.33      13.91       4.79
O       5.15      11.07       5.77
O       3.00      11.41       4.32
O       7.41      10.86       5.55
H       3.01      10.53       4.73
O       7.50      11.12       2.81
O       6.33      13.04       4.35
