23

Zn      12.33       6.27       0.06
Zn      15.27       7.55       0.06
Zn      12.70       9.45       0.06
Zn      13.43       7.75      -2.56
O      12.52       6.17      -3.28
O      11.52       5.29      -1.43
O      13.35       5.08       1.26
O      10.84       6.91       1.17
O      15.26       7.75      -3.28
O      16.52       7.33      -1.43
O      15.79       9.02       1.26
O      15.46       5.93       1.17
O      12.52       9.34      -3.28
O      12.26      10.64      -1.43
O      11.16       9.16       1.26
O      14.00      10.42       1.17
C      11.75       5.34      -2.69
O      13.43       7.75      -0.60
C      16.37       7.50      -2.68
C      12.18      10.42      -2.68
C      14.58       5.13       1.62
C      15.13      10.06       1.62
C      10.59       8.08       1.62
