23

Zn      17.71       5.04      32.01
Zn      14.53       4.87      31.82
Zn      16.23       2.16      31.84
Zn      16.02       3.99      34.51
C      16.11       7.03      30.55
C      13.72       2.50      30.28
C      18.82       2.70      30.55
C      16.12       1.02      34.55
C      18.52       5.54      34.81
C      13.42       5.36      34.53
O      16.13       4.00      32.55
O      17.27       6.62      30.92
O      13.50       3.70      30.64
O      17.88       1.88      30.80
O      14.99       6.49      30.81
O      18.90       3.92      30.93
O      14.71       1.77      30.65
O      16.20       0.83      33.28
O      17.54       4.94      35.34
O      16.05       2.14      35.15
O      18.74       5.68      33.56
O      13.34       5.46      33.26
O      14.38       4.82      35.20
