24

Al      14.79       6.78      14.16
Al      16.50       4.06      14.14
Al      18.00       6.66      14.17
C      16.66       8.24      16.02
O      15.55       7.93      12.73
O      17.78       3.71      15.50
O      18.95       5.67      15.48
O      17.80       7.94      15.49
O      16.45       5.82      14.15
O      14.19       5.58      12.70
O      15.34       3.62      12.76
O      17.86       3.72      12.85
O      18.96       5.71      12.82
O      17.83       7.97      12.86
O      15.53       7.92      15.57
O      14.19       5.55      15.57
O      15.24       3.54      15.39
O      13.27       7.66      14.20
H      12.83       7.77      13.35
C      14.55       4.48      12.21
C      18.64       4.57      12.32
C      16.70       8.26      12.31
C      14.45       4.38      15.97
C      18.61       4.54      16.00
