18

O       3.14      12.11       1.54
O       2.08      14.60       1.42
Al       2.64      13.29       0.09
Al       5.97      13.28       0.07
O       5.46      12.12      -1.35
O       4.30      14.11       0.13
O      -0.20      14.50       1.51
O       6.53      14.55      -1.24
O       0.96      12.48       0.13
C       4.32      11.72      -1.75
C       4.29      11.72       1.95
C       0.94      14.88       1.93
C       0.98      14.81      -1.78
H       4.31      14.91       0.67
H       0.96      11.60       0.52
O       5.41      11.98       1.41
O       3.20      12.02      -1.20
O       2.12      14.43      -1.34
