18

O       2.51      15.19       7.28
Al       1.97      14.15       5.74
O       3.63      13.33       5.62
Al       5.31      14.10       5.72
O       0.28      14.92       5.84
O       5.85      13.06       4.18
O       4.78      15.14       7.26
O       1.44      13.11       4.21
O       1.44      12.77       6.96
H       3.60      12.45       5.22
O       2.51      15.59       4.59
H       0.26      15.80       6.24
O       5.86      12.67       6.87
C       3.65      15.94       4.13
C       0.31      12.32       7.33
C       3.66      15.45       7.76
O       4.78      15.49       4.51
C       0.31      12.80       3.70
