20

Zn       2.48       4.94       6.84
Zn       5.28       5.06       6.93
C       3.97       2.43       7.03
C       3.81       5.18       4.28
C      -0.30       4.09       5.89
C      -1.74       4.08       5.93
C      -1.68       5.67       7.62
C      -0.27       5.64       7.62
C       3.82       7.58       6.98
C       3.89       4.92       9.49
N      -2.40       4.91       6.81
N       0.40       4.87       6.78
O       2.96       3.00       6.50
O       5.03       3.05       7.34
O       2.67       5.38       4.81
O       4.89       4.89       4.90
O       2.77       6.91       7.25
O       4.96       7.09       6.71
O       2.81       4.61       8.88
O       4.98       5.31       8.97
