20

Zn       8.44       7.46       7.66
Zn       5.53       7.46       7.66
C       7.00       9.96       7.59
C       7.00       4.97       7.73
C       2.85       7.55       6.50
C      11.11       6.64       8.49
C       2.85       7.37       8.82
C      11.11       8.28       6.83
C       7.02       7.42       5.01
C       7.01       7.50      10.31
N       3.53       7.46       7.66
N      10.44       7.46       7.66
O       8.03       9.37       7.13
O       5.97       5.54       7.26
O       8.03       5.55       8.19
O       5.97       9.38       8.06
O       7.99       6.91       5.64
O       5.98       7.00       9.75
O       7.99       8.02       9.67
O       5.98       7.92       5.56
