23

Zn       2.09       6.18       9.07
Zn       4.53       6.55       7.02
Zn       2.49       4.02       6.68
Zn       4.52       4.12       9.13
C       6.98       5.50       8.27
C       3.10       8.82       8.24
C       3.76       1.61       7.72
C       3.73       5.48       4.40
C       3.10       4.96      11.57
C      -0.16       4.91       7.65
O       3.40       5.23       7.95
O       4.40       6.33       5.07
O       4.02       4.25      11.03
O       2.95       4.57       4.83
O       2.30       5.76      10.98
O       2.27       8.14       8.92
O       4.44       2.25       8.60
O       6.43       6.35       7.51
O       0.53       4.21       6.86
O       6.43       4.64       9.02
O       0.26       5.72       8.55
O       4.01       8.40       7.46
O       2.94       2.14       6.88
