18

Al       4.94       5.17       6.01
Al       1.59       5.17       5.98
C       6.63       6.76       7.80
O       2.12       3.94       4.57
O       4.41       3.94       7.39
H       3.27       6.93       5.88
O       5.50       6.42       7.34
H       6.62       3.44       5.73
O       4.40       3.91       4.65
C       3.26       3.57       7.79
O       5.47       6.41       4.61
C       3.27       3.57       4.18
O       2.13       3.91       7.31
C       6.61       6.78       4.18
O       7.75       6.44       4.62
O       3.26       5.97       5.98
O       7.77       6.40       7.37
O       6.62       4.38       5.97
