23

Zn      17.68       5.19      31.96
Zn      14.49       5.00      31.75
Zn      16.23       2.30      31.82
Zn      15.96       4.12      34.45
C      16.06       7.17      30.49
C      13.73       2.60      30.24
C      18.82       2.87      30.52
C      16.09       1.16      34.52
C      18.46       5.68      34.77
C      13.36       5.50      34.44
O      16.10       4.15      32.49
O      17.22       6.78      30.90
O      13.48       3.81      30.57
O      17.87       2.04      30.77
O      14.94       6.61      30.72
O      18.90       4.08      30.90
O      14.71       1.89      30.63
O      16.19       0.97      33.26
O      17.47       5.07      35.27
O      16.00       2.28      35.13
O      18.71       5.83      33.52
O      13.26       5.57      33.17
O      14.33       4.98      35.11
