23

Zn      17.50       4.90      31.93
Zn      14.31       4.77      31.75
Zn      16.00       2.04      31.77
Zn      15.82       3.83      34.44
C      15.89       6.90      30.48
C      13.51       2.37      30.21
C      18.61       2.57      30.50
C      15.91       0.87      34.48
C      18.31       5.40      34.73
C      13.21       5.19      34.46
O      15.91       3.88      32.48
O      17.04       6.48      30.85
O      13.31       3.58      30.56
O      17.65       1.76      30.75
O      14.75       6.38      30.73
O      18.70       3.79      30.86
O      14.49       1.63      30.57
O      15.96       0.71      33.21
O      17.34       4.78      35.28
O      15.86       1.98      35.11
O      18.51       5.55      33.48
O      13.10       5.31      33.20
O      14.18       4.66      35.12
