27

Zn       0.57       7.86       8.74
Zn       0.09       4.41       8.69
Zn      -0.47       0.92       8.72
C       1.14       2.23       6.82
C       0.76       2.31      10.87
C       0.02      10.57       9.82
C       0.75      10.63       7.62
C       0.11      -1.79       9.79
C      -0.72      -1.87       7.62
C       2.68       6.17       8.92
C      -2.57       2.66       8.42
C      -1.12       6.57      10.59
N       0.47       9.92       8.73
N      -0.39      -1.15       8.71
C      -0.64       6.47       6.56
O       0.37       1.21       6.97
O       1.38       3.10       7.71
O       0.63       1.15      10.33
O       0.16       3.36      10.51
O       2.45       7.38       8.51
O       1.80       5.42       9.42
O      -2.37       1.44       8.82
O      -1.66       3.42       8.01
O      -0.33       7.58      10.46
O      -1.26       5.64       9.75
O      -0.59       7.59       7.19
O       0.02       5.44       6.88
