20

Zn       5.72       2.87       7.45
Zn       5.84       5.81       7.50
H       3.83       1.35       8.04
C       8.29       4.06       7.63
C       5.75       4.64       4.92
C       4.64      -1.27       6.98
C       5.08       0.07       7.03
C       3.22       4.61       7.49
C       5.73       4.46      10.06
C       5.14       0.61       9.46
I       2.95      -1.91       8.17
N       4.81       1.03       8.07
O       7.69       3.08       7.08
O       7.74       5.18       7.88
O       5.39       3.53       5.46
O       6.10       5.71       5.51
O       3.80       3.54       7.88
O       3.80       5.66       7.10
O       6.10       3.39       9.49
O       5.45       5.58       9.50
