62

Hf      15.21       3.06      17.65
Hf      15.16       0.58      20.20
Hf      15.17       0.56      15.15
Hf      15.19      -1.90      17.67
Hf      17.66       0.57      17.67
Hf      12.71       0.58      17.66
H      13.29       2.67      19.60
H      16.97      -1.42      19.82
H      13.30      -1.53      15.71
H      17.08       2.52      15.59
H      14.64      -1.34      22.02
H      14.32      -3.72      19.62
H      15.73      -3.82      15.87
H      15.14      -2.17      14.77
H      14.60       2.48      13.31
H      15.15       3.47      14.94
H      15.82       4.94      19.47
H      15.16       3.31      20.57
H      15.86      -1.61      13.43
H      15.83       4.85      15.46
H      15.82       2.74      21.93
H      15.92      -3.82      19.84
C      18.43       3.69      17.71
C      11.92       0.60      20.74
C      18.44       0.71      20.73
C      11.98       3.66      17.48
O      17.23       4.12      17.68
C      11.97       0.55      14.53
O      13.11       0.56      21.17
C      18.40       0.45      14.55
O      17.26       0.87      21.12
C      18.42      -2.54      17.57
O      13.16       4.08      17.46
C      11.92      -2.49      17.85
O      15.18       4.23      19.35
O      15.17       4.17      15.72
O      15.13       2.53      21.26
O      15.34      -0.88      21.52
O      16.26       1.60      18.67
O      13.79       2.03      19.05
O      13.17       0.59      14.12
O      18.83       2.49      17.75
O      17.23      -2.97      17.59
O      18.83      -1.34      17.55
O      13.11      -2.92      17.98
O      11.51       0.64      19.54
O      17.21       0.35      14.15
O      18.83       0.59      15.74
O      15.16      -1.38      14.08
O      15.25       2.29      14.02
O      15.11      -3.08      15.97
O      15.19      -3.44      19.28
O      13.78      -0.90      16.27
O      16.25      -0.48      16.64
O      14.13       1.58      16.60
O      16.56      -0.88      19.12
O      16.60       1.96      16.22
O      14.10      -0.46      18.73
O      18.85       0.52      19.54
O      11.56       2.46      17.50
O      11.56       0.51      15.73
O      11.52      -1.30      17.76
