23

Zn      17.58       4.97      31.97
Zn      14.36       4.87      31.82
Zn      16.07       2.15      31.81
Zn      15.87       3.92      34.49
C      15.96       6.98      30.53
C      13.57       2.48      30.26
C      18.68       2.65      30.52
C      15.96       0.98      34.53
C      18.37       5.48      34.78
C      13.26       5.32      34.52
O      15.97       3.98      32.52
O      17.10       6.55      30.91
O      13.34       3.68      30.63
O      17.70       1.86      30.76
O      14.82       6.46      30.78
O      18.80       3.86      30.91
O      14.56       1.75      30.61
O      16.02       0.82      33.26
O      17.38       4.87      35.31
O      15.90       2.08      35.16
O      18.60       5.60      33.53
O      13.14       5.42      33.25
O      14.24       4.79      35.16
