35

Zn       2.82       6.15       6.83
Zn       5.26       3.22       9.66
Zn       5.22       3.75       6.31
Zn       3.27       6.25      10.21
C       1.56       4.43       4.54
C       3.63       2.45      12.08
C       5.08       7.59       5.52
C       5.06       0.60       6.48
C       2.86       9.18       9.46
C       0.23       6.74       9.84
C       7.55       5.42       7.31
C       4.39       0.62       8.60
C       1.94       9.00       7.45
C       0.11       5.82       7.82
C       7.63       5.09       9.51
C       2.11       4.05      11.86
C       6.14       6.06       4.30
C       2.91       2.68       4.79
C       5.54       7.74      11.40
N       2.37       4.65       5.58
N       5.46       5.57      11.96
N       3.92       3.19      11.00
N       4.69       6.37       5.94
N       5.31       1.82       6.98
N       3.37       8.07       8.87
N       1.42       6.20       9.53
N       6.53       4.61       7.64
N       4.90       1.82       8.30
N       2.80       7.98       7.63
N       1.37       5.64       8.29
N       6.58       4.41       9.00
N       2.99       4.18      10.86
N       5.35       5.43       5.18
N       3.21       3.58       5.75
N       4.91       6.57      11.18
