25

Cu      31.51      11.81      17.49
O      32.48      11.25      15.91
Cu      34.41      11.25      15.91
Cu      31.51      10.69      14.33
N      33.25      12.13      18.44
N      33.48      12.55      19.67
N      34.41      10.57      14.02
N      35.42      10.27      13.22
N      29.78      11.02      15.29
N      28.53      10.85      14.87
N      34.41      11.93      17.80
N      35.42      12.23      18.60
C      29.64       9.03      12.66
N      29.78      11.49      16.54
N      28.53      11.65      16.96
N      33.25      10.37      13.39
N      33.48       9.95      12.15
C      30.60      11.75      20.36
C      37.19      10.11      15.73
C      30.60      10.75      11.46
C      37.19      12.39      16.10
C      29.64      13.47      19.16
N      30.47      10.09      12.63
N      30.47      12.41      19.20
N      36.50      11.25      15.91
