20

Zn       8.39       7.76       9.81
Zn       5.62       7.76       9.82
C       7.08      10.37       9.78
C       2.88       8.20       8.74
C      11.13       6.75      10.39
C       2.88       7.31      10.89
C      11.13       8.76       9.24
C       7.08       5.14       9.85
C       6.93       7.75       7.20
C       6.93       7.77      12.43
N       3.56       7.76       9.82
N      10.45       7.76       9.82
O       8.20       9.80       9.56
O       5.97       5.73       9.62
O       8.20       5.72      10.07
O       5.98       9.78      10.01
O       8.04       7.55       7.80
O       5.81       7.55      11.85
O       8.04       7.99      11.83
O       5.80       7.95       7.78
