18

Al      -0.11       8.43       0.02
Al       3.26       8.42      -0.03
H       1.57      10.18      -0.14
H      -1.78       6.67      -0.18
O      -0.65       9.63       1.42
O      -2.93       9.64      -1.42
O       2.71       7.21      -1.42
O       0.44       7.20       1.38
O       0.43       7.16      -1.36
O       2.72       7.14       1.31
O      -2.92       9.68       1.29
O      -0.65       9.73      -1.30
O       1.57       9.22      -0.01
O      -1.78       7.62      -0.03
C      -1.80      10.05       1.78
C      -1.79      10.05      -1.80
C       1.57       6.82      -1.82
C       1.58       6.81       1.78
