23

Zn      12.87      14.16      10.10
Zn      13.04      12.36       7.42
Zn      11.33      15.06       7.45
Zn      14.59      15.14       7.62
C      12.97      11.25      10.10
C      10.60      12.71       5.89
C      10.26      15.46      10.11
C      12.97      17.13       6.21
C      15.31      15.67      10.37
C      15.62      12.87       6.16
O      12.94      14.19       8.13
O      13.33      12.33      10.65
O      11.75      12.17       5.96
O      10.27      15.89       8.90
O      12.70      11.06       8.86
O      11.02      14.59      10.62
O      10.20      13.73       6.54
O      11.86      16.50       6.20
O      15.73      15.40       9.20
O      13.99      16.88       6.92
O      14.14      15.46      10.82
O      14.88      12.05       6.79
O      15.61      14.15       6.25
