18

O       0.40       4.66       5.52
C      -2.96       2.80       4.87
Al      -1.28       4.75       6.29
C       0.36       6.67       7.81
Al       2.04       4.72       6.39
O       2.57       6.00       5.05
O       2.56       3.25       5.27
O      -0.75       6.22       7.41
O      -1.80       6.03       4.95
O       1.52       3.44       7.73
O      -1.82       3.30       5.14
O      -2.92       4.81       7.16
O       1.50       6.18       7.54
O      -0.75       3.47       7.63
H       0.43       4.10       4.73
H      -2.89       5.38       7.95
C      -2.96       6.46       4.62
C       0.36       3.02       8.06
