23

Zn      16.18      16.49      22.42
Zn      17.76      15.61      25.07
Zn      15.99      18.31      25.06
Zn      14.55      15.43      24.95
C      18.81      15.13      22.36
C      18.50      18.01      26.61
C      16.11      19.45      22.34
C      13.40      17.77      26.36
C      13.72      14.92      22.16
C      16.19      13.45      26.37
O      16.13      16.47      24.38
O      17.81      15.63      21.74
O      18.77      16.82      26.25
O      16.05      19.64      23.61
O      18.97      15.04      23.63
O      16.15      18.33      21.74
O      17.50      18.71      26.25
O      14.34      18.60      26.09
O      13.53      14.78      23.40
O      13.33      16.55      26.00
O      14.68      15.55      21.59
O      17.31      14.00      26.11
O      15.03      13.86      26.01
