44

Zn       2.93      10.01       0.22
C       4.89       7.75       0.05
Zn      -2.93      10.99      -0.22
C      -4.89      13.24      -0.05
Zn       5.67      10.62      -0.25
Zn      -5.67      10.37       0.25
N       0.92       9.47       0.42
H       1.04       8.52       0.79
N      -0.92      11.53      -0.42
H      -1.04      12.48      -0.79
N       7.73      10.93      -0.23
H       7.86      11.90      -0.54
N      10.49      10.07       0.23
H      10.36       9.10       0.54
O       3.67       8.03       0.25
O      -3.67      12.97      -0.25
O       5.83       8.59      -0.15
C      -3.97       8.07       0.06
O      -5.83      12.40       0.15
C       3.97      12.92      -0.06
C       4.03      10.16      -2.61
O      -3.00       8.89      -0.07
C      -4.03      10.84       2.61
O       3.00      12.11       0.07
O      -5.20       8.39       0.22
O       5.20      12.61      -0.22
O       5.21      10.52      -2.26
O      -5.21      10.48       2.26
O       3.06       9.90      -1.82
C       4.42      10.43       2.61
O      -3.06      11.09       1.82
C      -4.42      10.56      -2.61
O       3.23      10.14       2.26
O      -3.23      10.86      -2.26
O       5.40      10.64       1.82
O      -5.40      10.35      -1.82
C       0.17       9.36      -0.87
C      -0.17      11.64       0.87
C       0.13      10.25       1.41
C      -0.13      10.75      -1.41
C       8.43      10.02      -1.18
C       9.79      10.97       1.18
C       8.28      10.78       1.14
C       9.94      10.21      -1.14
