20

Zn       6.99       8.84      31.91
Zn       9.77       8.87      31.93
N      11.82       8.87      31.90
N       4.94       8.85      31.95
O       7.26      10.88      31.88
O       9.53      10.92      31.91
O       9.51       8.89      29.87
O       7.24       8.83      29.87
O       9.46       6.84      31.94
O       7.19       6.78      31.94
O       7.28       8.83      33.95
O       9.55       8.86      33.99
C       8.39      11.48      31.90
C       8.38       8.86      29.29
C       8.34       6.23      31.94
C       8.40       8.84      34.55
C      12.47       9.71      31.07
C      12.51       8.06      32.71
C       4.25       9.67      31.14
C       4.29       8.01      32.78
