36

C       4.00       8.72      21.90
Zn      -1.34      11.84      22.74
Zn       3.40      11.20      23.48
C       5.29      12.93      25.53
Zn       0.65      11.03      20.91
Zn       1.40      12.02      25.31
C      -0.16      14.54      25.60
C       3.39      10.25      27.38
C      -1.34      12.79      18.84
C       2.21       8.50      20.62
C       0.52       9.15      25.27
C       3.04      14.00      22.57
C       1.54      13.89      20.95
C       3.54      13.79      26.59
C      -1.49       9.25      19.63
C      -0.99       9.04      23.66
N       3.44      10.05      25.19
N      -1.38      12.99      21.03
N      -1.24      13.18      24.25
N       3.30       9.87      21.97
N       2.18       9.73      21.17
N      -0.12      13.32      25.05
N      -0.71      12.43      19.97
N       2.77      10.61      26.25
N       0.53      10.32      24.60
N       1.52      12.72      21.63
N       3.11      13.18      25.47
N      -1.05       9.86      20.75
N      -2.14      10.39      21.40
N       4.19      12.65      24.82
N       2.45      12.79      22.63
N      -0.40      10.25      23.60
C      -3.24      10.11      20.69
C       4.48       9.35      25.67
C      -2.43      13.69      20.55
C      -1.94      14.33      24.31
