18

Mg       3.79       0.78      20.31
O       3.09      -0.83      19.26
Mg       6.05      -1.01      19.86
O       0.61      -1.54      18.45
Mg       1.52       0.27      18.54
O       4.65      -2.40      19.50
C       1.21       0.69      21.58
C       3.43       2.52      17.82
O       0.12       1.28      17.51
O       5.35       0.70      18.99
C       5.73       1.41      17.98
O       2.87       1.76      18.78
C       1.17      -2.75      18.27
C       3.47      -2.07      19.15
O       0.82       0.17      20.46
O       2.39       1.16      21.70
O       5.14      -0.18      21.48
C       5.69       0.27      22.61
