17

Pr       7.96       4.09       4.52
O       5.49       3.57       4.89
O       7.68       6.46       5.71
C       7.96       7.03       4.61
O      10.34       4.25       3.34
O       7.91       1.56       4.16
C      10.85       4.62       4.43
C       7.84       2.41       7.64
C       6.34       3.66       1.41
O       9.87       2.09       5.15
O       7.70       3.35       6.79
O       7.29       3.69       2.26
C       5.00       4.61       4.35
O       5.65       5.59       3.90
O       8.41       6.47       3.57
C       9.02       1.27       4.70
O      10.22       4.96       5.48
