10

Zn      -0.50       3.90       7.22
N       1.58       3.94       7.25
N       2.18       4.05       8.33
O      -0.60       5.91       7.45
H       2.27       3.96       6.46
O      -0.87       1.94       7.33
O      -1.20       4.05       5.31
C      -1.64       6.57       7.76
C      -1.94       1.44       7.82
C      -2.47       4.08       5.18
