15

Cu      24.79      24.77       4.76
Cu      24.81      27.06       6.96
Cu      27.07      24.79       6.96
N      23.50      27.08       5.66
N      23.49      26.09       4.71
C      22.50      26.34       3.84
N      26.09      23.47       4.71
N      27.09      23.49       5.66
C      22.52      27.96       5.37
N      26.12      27.08       8.26
C      26.35      22.48       3.84
C      26.39      27.94       9.26
N      27.09      26.10       8.26
C      27.96      26.37       9.26
C      27.96      22.50       5.37
