35

Mg       7.57       9.78      19.76
H      12.94       7.33      18.70
C      11.84      12.17      19.13
Mg       4.07      10.36      20.29
Mg      11.06       9.20      19.23
O       7.06      11.73      19.57
O       8.07       7.82      19.95
O       2.81      11.61      21.32
O      12.33       7.95      18.20
O       4.85      11.97      19.19
O      10.28       7.58      20.33
O       7.36       9.91      21.76
C      12.27       8.99      22.17
O       7.77       9.64      17.77
C       2.86      10.57      17.35
O       5.15      10.27      22.03
O       9.98       9.28      17.49
O       3.04       8.60      20.72
O      12.09      10.95      18.80
C       6.05      12.45      19.34
C       9.08       7.11      20.18
O      12.46       9.19      20.95
O       2.67      10.37      18.57
O       5.54       9.11      19.32
H      12.80       8.38      17.44
O       9.59      10.45      20.20
H       5.66       9.07      18.35
H       9.47      10.49      21.17
H       5.20       8.14      19.63
H       9.93      11.41      19.89
C       6.33      10.12      22.47
H       2.33      11.17      22.08
C       8.80       9.44      17.05
H       2.20      12.22      20.82
C       3.29       7.39      20.39
