24

Al      18.47      10.61       0.37
Al      15.26      10.62       0.41
Al      16.64       7.97       0.47
C      16.58      12.11      -1.49
C      14.64       8.53      -1.47
C      18.68       8.21      -1.38
C      16.68      12.06       2.33
C      14.51       8.60       2.26
C      18.57       8.36       2.42
O      15.41       7.65      -0.94
O      17.92       7.38      -0.73
O      19.02       9.37       1.82
O      17.79      11.78       1.79
O      15.53      11.87       1.78
O      14.23       9.73       1.73
O      15.21       7.69       1.69
O      17.71       7.52       1.93
O      16.77       9.72       0.42
O      19.02       9.36      -1.01
O      17.71      11.73      -1.08
O      15.45      11.93      -0.88
O      14.32       9.65      -0.94
O      20.03      11.40       0.30
H      20.19      12.07       0.98
