18

Al       6.45      12.43      11.53
Al       3.12      12.44      11.46
C       8.09      13.81       9.53
O       5.91      11.09      10.28
C       4.76      11.07      13.51
C       4.79      10.72       9.80
H       8.14      10.88      12.23
O       3.65      11.13      10.19
O       5.92      11.33      13.05
O       6.98      13.81      12.78
H       4.77      14.13      11.87
O       6.97      13.54      10.07
O       3.64      11.29      12.95
O       4.78      13.25      11.48
O       9.25      13.53       9.97
O       9.25      13.84      12.71
O       8.11      11.63      11.62
C       8.13      14.22      13.17
