11

Zn       4.36       3.04       6.39
O       3.45       1.28       6.33
N       5.45       3.34       4.69
C       6.52       2.37       8.34
O       2.85       4.27       6.58
C       3.15       5.54       6.59
C       5.17       4.37       3.85
N       5.49       3.20       8.09
C       5.26       4.22       8.95
C       6.51       2.55       4.42
C       4.25       0.26       6.23
