24

O      15.04       7.79       1.48
O      19.20      11.63      -0.84
Al      17.74      10.71      -0.56
Al      16.13       7.96      -0.11
Al      14.56      10.53      -0.20
H      19.83      11.67      -0.11
C      18.33       8.50       1.44
C      14.34       8.72       2.01
C      16.02      12.16       1.46
C      17.81       8.25      -2.30
C      13.78       8.23      -1.68
C      15.62      11.91      -2.34
O      13.85       9.73       1.40
O      14.86      11.98       0.90
O      16.80      11.75      -1.94
O      18.15       9.42      -2.00
O      17.16       7.42      -1.56
O      14.65       7.44      -1.15
O      13.46       9.38      -1.21
O      14.54      11.62      -1.71
O      16.12       9.72      -0.28
O      17.14      11.86       0.94
O      18.58       9.58       0.84
O      17.51       7.58       1.05
