18

Al       0.54       6.95       8.02
Al       3.87       7.01       8.05
C       2.24       5.44       6.18
C      -1.12       8.58       9.89
C       2.20       5.27       9.80
C      -1.10       8.57       6.23
O       3.33       5.65       9.35
O       1.09       5.72       6.66
O       0.03       8.14       6.62
O       1.06       5.66       9.38
O      -0.01       8.23       9.39
O       3.35       5.88       6.61
O       2.19       7.79       8.13
O      -2.27       8.18       9.49
O      -2.23       8.30       6.76
O      -1.13       6.16       8.05
H       2.15       8.55       8.74
H      -1.16       5.28       8.44
