10

Al       3.97      13.94      16.09
O       5.03      13.04      17.41
O       5.03      13.25      14.66
O       5.03      15.53      16.21
O       2.92      12.36      16.33
O       2.92      14.94      17.35
O       2.92      14.52      14.60
C       5.97      13.85      14.04
C       5.97      15.76      17.05
C       5.97      12.20      17.20
