12

Li       3.96       0.23       0.86
Li       5.95      -0.23      -0.86
C       6.61       1.52       1.39
O       6.61       0.88      -2.29
O       5.80       0.71       0.83
O       2.79       1.84       0.87
C       2.47      -1.78       2.52
O       3.30      -0.88       2.29
O       4.11      -0.71      -0.83
C       3.30      -1.52      -1.39
O       7.12      -1.84      -0.87
C       7.44       1.78      -2.52
