20

Zn       7.70       7.89      13.02
Zn       5.47       8.59      14.72
C       8.19       7.86      15.88
C       4.98       8.62      11.86
C       7.30      10.76      13.65
C       5.87       5.72      14.09
N       9.08       7.26      11.65
N       4.09       9.22      16.08
O       8.77       7.67      14.76
O       4.40       8.81      12.98
C       8.85       6.12      10.97
O       7.02       8.32      16.04
O       6.15       8.16      11.69
O       6.26      10.48      14.31
C       4.32      10.36      16.77
O       6.91       6.00      13.42
O       8.06       9.93      13.04
O       5.11       6.55      14.70
C      10.24       7.91      11.46
C       2.93       8.57      16.28
