11

C       4.20      24.92       7.72
C       4.27      21.46       7.61
C       2.17      25.71       8.52
Br      -0.36      23.21       7.57
Cu       2.02      23.17       7.00
C       2.44      20.83       8.87
N       2.96      21.61       7.90
C       1.41      21.68       4.61
N       2.85      24.81       7.77
C       2.74      23.53       4.14
N       2.08      22.77       5.05
