10

O       3.19      13.92       3.65
Al       4.32      12.88       2.48
O       5.46      14.42       2.68
O       5.46      11.94       3.71
O       5.46      12.28       1.05
C       6.44      11.15       3.53
C       2.17      14.66       3.45
C       6.44      12.84       0.46
O       3.19      13.38       0.99
O       3.19      11.35       2.79
