20

Zn       6.94       5.36       7.23
Zn       9.61       5.44       6.67
C       8.17       7.98       7.18
C       8.55       4.67       9.47
C       8.34       2.81       6.53
C       2.72       6.08       7.77
C       2.86       4.55       6.12
C       4.23       4.45       6.32
C       4.09       5.98       7.97
C       8.03       5.72       4.32
N       2.07       5.40       6.83
N       4.89       5.20       7.25
O       7.04       7.40       7.33
O       9.30       7.40       7.22
O       7.32       4.91       9.23
O       9.51       4.85       8.64
O       7.24       3.36       6.87
O       9.40       3.43       6.18
O       7.07       5.52       5.12
O       9.23       5.97       4.74
