36

Co      -1.21      12.05       6.97
Co      -1.47      19.00       6.01
C      -0.80      18.14       3.26
C      -1.88      11.19       9.72
Co      -1.17      15.48       6.33
Co      -1.51       8.53       6.64
C      -1.82      18.55       8.92
C      -0.86      11.60       4.06
C      -1.30      16.42       9.16
C      -1.38       9.47       3.82
N       0.42      13.11       7.08
N      -3.11       6.16       5.89
N       0.43      14.36       6.52
N      -3.11       7.41       6.45
N      -2.80      13.19       7.01
N       0.12       6.24       5.96
N      -2.81      14.43       6.43
N       0.13       7.48       6.54
N      -1.76       9.48       8.34
N      -0.92      16.43       4.64
N      -1.56      10.83       8.46
N      -1.12      17.78       4.52
N      -1.55      18.04       7.70
N      -1.13      11.09       5.28
N      -1.22      16.72       7.85
N      -1.46       9.77       5.13
C       1.71      12.74       7.28
C      -4.39       5.79       5.70
C       1.71      14.75       6.38
C      -4.39       7.81       6.60
C      -4.07      12.82       7.24
C       1.39       5.87       5.73
C      -4.10      14.82       6.31
C       1.42       7.87       6.66
C      -2.18       9.01       9.53
C      -0.50      15.96       3.44
