36

Zn      -5.41       7.27       7.94
Zn      -5.46       4.36       9.83
Zn      -8.24       3.48       8.35
Zn      -8.21       6.26       6.55
C      -7.56       9.15       9.05
C      -7.62       4.43      12.03
C      -7.17       8.10       4.30
C      -7.20       0.66       9.09
C      -5.20       1.19       9.90
C      -5.18       8.64       5.10
C      -9.47       4.51      10.81
C      -9.40       8.04       8.53
C     -11.25       5.48       6.31
C     -11.26       3.63       7.50
C      -4.36       6.44      11.78
C      -4.09       8.23      10.52
C      -3.42       5.60       6.54
C      -3.39       3.77       7.79
C      -7.25       2.45       5.77
C      -7.26       4.31       4.55
N      -7.20       7.92       8.63
N      -7.26       4.60      10.75
N      -8.40       4.63      10.00
N      -8.34       7.25       8.30
N      -9.99       5.24       6.72
N     -10.00       4.09       7.47
N      -4.57       6.08      10.51
N      -4.41       7.20       9.72
N      -4.55       5.56       7.27
N      -4.53       4.44       8.04
N      -7.26       3.51       6.60
N      -7.26       4.65       5.85
N      -7.11       7.68       5.57
N      -7.13       2.00       9.22
N      -5.89       2.33       9.72
N      -5.87       8.01       6.07
