9

C       1.56       9.86      15.00
Co       1.84      11.93      17.07
C       2.11      14.00      15.00
C       4.13      13.37      15.96
C      -0.46      10.49      15.96
Cl       3.46      10.91      18.18
Cl       0.21      12.95      18.18
N       0.88      10.63      15.89
N       2.79      13.23      15.89
