35

Mg       6.66       7.01       7.35
Mg       7.34      10.55       7.18
Mg       5.98       3.48       7.52
H       9.13      12.41       6.47
H       4.19       1.62       8.23
O       8.44       9.52       5.90
H       9.21      12.20       8.08
O       4.88       4.50       8.80
H       4.11       1.82       6.62
O       8.62      12.21       7.29
O       4.70       1.82       7.41
O       8.44       7.34       6.45
O       4.88       6.69       8.25
O       5.78       8.92       6.87
O       7.54       5.11       7.83
O       6.40      11.56       5.71
O       6.92       2.47       9.00
O       8.44       9.79       8.74
O       4.88       4.23       5.96
O       7.27       7.94       9.22
O       6.05       6.09       5.49
O       6.09      11.34       8.65
O       7.23       2.69       6.05
H       5.41       9.33       5.96
H       7.91       4.70       8.74
H       4.98       8.81       7.43
H       8.33       5.22       7.27
C       8.87       8.34       5.78
C       4.45       5.69       8.92
C       5.38      11.30       4.98
C       7.94       2.73       9.73
C       8.30       8.70       9.35
C       5.02       5.33       5.35
C       5.40      11.04       9.64
C       7.92       2.98       5.06
