18

Al       4.03       2.92       6.03
Al       0.66       2.92       6.03
H       2.35       3.56       7.65
H       5.71       2.28       4.40
O       2.34       3.40       6.69
O       5.72       2.44       5.36
C       5.71       2.38       8.38
C       5.72       5.33       6.19
C       2.36       3.45       3.67
C       2.34       0.50       5.86
O       4.57       2.51       7.83
O       0.11       4.74       6.20
O       1.22       3.33       4.23
O       3.48       1.10       5.79
O       3.50       3.32       4.23
O       1.21       1.10       5.85
O       0.09       2.51       7.82
O       4.59       4.74       6.26
