20

Zn       6.35       9.72       8.51
Zn       6.21       6.86       8.51
C       5.75       8.34       5.96
C       6.55       8.20      11.10
C       5.08       4.26       9.36
C       7.59      12.29       7.73
C       6.43       4.13       7.45
C       6.19      12.44       9.59
C       8.83       8.05       8.10
C       3.72       8.56       8.93
N       5.89       4.84       8.44
N       6.73      11.72       8.61
O       5.91       9.47       6.52
O       6.56       7.06      10.53
O       5.81       7.20       6.52
O       6.61       9.33      10.52
O       8.31       9.20       8.10
O       4.25       7.41       8.95
O       8.24       6.93       8.13
O       4.30       9.68       8.88
