20

Zn       5.25       6.10       8.56
Zn       8.05       5.89       8.40
C       6.78       8.59       8.59
C       6.63       5.98      11.09
C       6.53       3.41       8.32
C       6.65       6.33       5.88
C       1.04       6.34       9.49
C       1.10       5.55       7.38
C       2.50       5.63       7.39
C       2.43       6.41       9.51
N       0.34       5.92       8.45
N       3.19       6.07       8.48
O       5.64       8.10       8.90
O       7.83       7.93       8.33
O       5.46       5.86      10.61
O       7.73       5.95      10.44
O       5.45       4.08       8.31
O       7.71       3.89       8.32
O       5.57       6.49       6.53
O       7.77       5.94       6.33
