23

Zn      16.11      16.35      22.44
Zn      17.67      15.44      25.08
Zn      15.93      18.16      25.10
Zn      14.46      15.28      24.93
C      18.74      14.98      22.38
C      18.44      17.82      26.64
C      16.04      19.31      22.39
C      13.33      17.62      26.38
C      13.64      14.78      22.13
C      16.07      13.29      26.37
O      16.04      16.32      24.40
O      17.76      15.52      21.77
O      18.67      16.62      26.27
O      15.97      19.50      23.65
O      18.88      14.85      23.65
O      16.10      18.19      21.78
O      17.45      18.55      26.28
O      14.28      18.45      26.13
O      13.43      14.64      23.38
O      13.26      16.41      26.00
O      14.62      15.41      21.60
O      17.19      13.83      26.10
O      14.90      13.70      26.01
