23

Zn       9.86       4.18       7.83
Zn       8.32       5.08       5.17
Zn       8.24       6.93       7.80
Zn       6.67       4.07       7.72
C      11.09       4.20       5.21
C       8.30       1.70       8.24
C      10.27       6.23       9.84
C       5.53       4.24       5.02
C       8.79       8.02       5.17
C       6.03       6.21       9.57
O       9.97       4.17       4.59
O      11.27       4.22       6.46
O       7.14       2.21       8.16
O       9.43       2.29       8.18
O       9.65       7.14       9.19
O      10.45       5.02       9.50
O       5.35       4.01       6.26
O       6.63       4.42       4.42
O       8.58       8.26       6.40
O       8.57       6.94       4.53
O       5.90       4.97       9.30
O       6.58       7.11       8.86
O       8.25       5.08       7.13
