18

O       3.60      27.32      24.34
O       0.18      30.13      26.83
Al       3.01      28.70      25.51
Al       6.39      28.80      25.55
C       4.74      26.95      23.91
C       1.34      30.56      27.15
H       4.68      30.24      24.70
H       1.28      27.19      26.27
C       4.70      27.33      27.48
C       1.34      30.16      23.57
O       2.44      30.07      26.70
O       5.86      27.48      24.24
O       3.55      27.66      27.03
O       6.97      29.92      24.11
O       4.69      29.59      25.43
O       1.30      27.91      25.61
O       5.83      27.66      26.98
O       2.48      29.74      23.99
