20

Zn       9.71       8.96      16.61
Zn       6.89       8.65      16.56
N       4.81       8.54      16.53
N      11.80       9.06      16.71
O       9.03      10.86      16.86
O       6.84      10.73      16.31
O       7.10       8.97      18.61
O       9.34       8.59      18.60
O       7.48       6.72      16.91
O       9.64       6.91      16.26
O       9.55       9.24      14.56
O       7.41       8.48      14.60
C       7.91      11.38      16.56
C       8.22       8.78      19.17
C       8.61       6.24      16.58
C       8.44       8.91      14.01
C       4.19       9.50      17.26
C       4.04       7.67      15.85
C      12.55       9.89      17.44
C      12.43       8.13      15.95
