23

C      29.42      14.78      13.18
C      34.51      11.66      17.16
C      32.07      16.15      17.01
Zn      33.60      14.00      15.72
Zn      30.40      14.06      15.84
Zn      31.96      11.26      15.73
Zn      31.94      13.17      13.14
C      29.55      11.69      17.35
C      34.49      14.55      12.97
C      31.94      10.26      12.94
O      31.94      13.13      15.10
O      30.33      14.17      12.55
O      34.58      12.93      17.01
O      30.93      15.57      16.97
O      31.93      10.05      14.20
O      29.38      12.91      17.04
O      33.41      14.21      12.39
O      30.41      10.88      16.87
O      34.76      14.43      14.21
O      33.15      15.77      16.49
O      31.86      11.39      12.35
O      29.21      14.80      14.44
O      33.62      10.89      16.66
