66

Hf       6.79       1.36      31.75
Hf       7.04      -2.67      34.53
Hf       5.15      -1.75      31.67
Hf       8.67       0.43      34.56
Hf       5.11       0.27      34.62
Hf       8.70      -1.59      31.68
H       6.77       2.51      34.33
H       4.19      -2.33      34.30
H       9.81      -2.10      34.26
H       6.87      -0.72      29.72
H       2.41      -0.44      34.63
H       5.04      -3.41      29.45
H       8.46      -3.86      30.09
H       5.33       1.19      37.18
H       8.42       2.54      36.40
H      11.19       1.14      34.13
H      10.95      -0.54      33.00
H       3.87      -0.47      37.04
H       5.03      -2.07      36.42
H       7.79       1.72      29.12
H       9.48      -1.07      29.16
H       6.99       1.62      36.42
H       5.16      -3.69      36.37
H       2.58      -2.54      32.05
H       2.86      -0.68      33.11
H      11.22      -0.69      31.38
H       7.09      -3.01      29.82
H       8.85       0.72      29.89
O       8.25       1.60      29.96
O       5.38       2.98      32.22
O       5.51       1.55      29.99
O       9.32       2.52      34.05
O       4.33      -0.39      30.01
O       8.17       3.06      32.17
O       4.27       2.26      34.05
O       5.39       0.13      32.54
O       6.83       1.60      33.99
O       6.92      -0.67      30.68
O       8.37       0.27      32.50
O      10.75       0.29      34.26
O       2.91      -0.03      33.91
O       6.93      -0.69      34.96
O       4.98      -1.88      33.96
O       6.98      -2.36      32.52
O       9.00      -1.70      33.89
O       3.10      -1.73      31.96
C       4.52       3.14      33.16
C       9.04       3.29      33.07
O       9.57      -0.58      29.99
C       4.64       0.72      29.49
C       9.27      -4.50      33.02
O       4.73      -3.93      32.21
C       9.02      -1.84      36.89
O       8.14      -2.96      29.91
O      10.89      -1.17      32.16
O       9.48      -3.64      32.08
O       5.65      -2.81      29.90
C       5.00      -4.72      33.17
O       8.43      -4.32      33.97
O       5.69      -2.88      36.40
O       5.75      -4.45      34.17
O       8.35      -2.77      36.31
O       8.10       1.62      36.36
O       9.33      -0.73      36.34
O       5.63       1.51      36.32
O       4.17      -0.85      36.20
