18

Al       5.12       5.18      17.70
O       4.53       3.86      16.45
Al       1.80       5.23      17.69
O       4.63       4.00      19.17
O       1.31       6.38      19.19
O       1.20       6.57      16.48
C       3.48       3.59      19.52
O       3.47       6.02      17.76
O       6.79       4.38      17.75
C       6.81       6.81      19.53
H       3.49       6.84      18.28
H       6.81       3.58      18.29
C       6.73       6.78      15.89
O       2.36       3.86      18.96
O       2.29       4.16      16.19
O       5.61       6.27      16.21
O       5.69       6.53      18.98
C       3.41       3.65      15.87
