41

O       6.13      11.00      15.14
Zn       4.31      11.01      11.38
C       2.07      12.08       7.40
C       2.82      10.31      17.47
Zn       5.13      11.58       8.12
Zn       3.74      10.19      14.64
C       5.01      12.50       5.29
C       3.29       8.12      16.83
C       7.20      12.03       5.93
C       1.53      10.59      12.65
C       4.73      13.79      10.11
C       3.71       9.40       8.68
C       5.92      11.61      14.07
C       2.66       8.44       9.21
H       2.50       8.58      10.28
C       6.88      12.65      13.55
H       6.74      12.82      12.48
N       3.18      11.99      15.80
H       2.95       7.41       8.99
H       7.91      12.37      13.77
N       3.33      12.14       6.96
N       3.26       9.43      16.54
H       1.72       8.65       8.67
H       6.67      13.59      14.09
N       5.89      12.06       6.22
O       6.37      10.87      10.98
C       7.21      10.83      10.04
C       4.49       8.11      12.71
O       4.45       8.95      11.78
O       7.00      10.99       8.80
O       4.33       8.32      13.96
O       2.26      11.07      11.74
O       4.25      13.06      11.02
O       1.88      10.12      13.78
O       5.20      13.44       8.97
C       2.81      11.73      17.07
O       3.91      10.51       9.36
O       4.81      11.41      13.40
C       3.59      12.51       5.69
C       3.24      13.25      15.36
O       4.32       9.19       7.62
