23

Zn      17.73       5.18      31.98
Zn      14.53       4.98      31.76
Zn      16.27       2.28      31.83
Zn      16.01       4.11      34.47
C      16.11       7.15      30.51
C      13.76       2.58      30.26
C      18.86       2.85      30.53
C      16.13       1.15      34.54
C      18.51       5.67      34.78
C      13.41       5.48      34.46
O      16.14       4.13      32.50
O      17.26       6.76      30.91
O      13.52       3.79      30.58
O      17.91       2.02      30.78
O      14.99       6.58      30.73
O      18.93       4.06      30.91
O      14.75       1.88      30.64
O      16.23       0.95      33.27
O      17.52       5.06      35.29
O      16.04       2.27      35.14
O      18.75       5.82      33.54
O      13.31       5.55      33.19
O      14.37       4.96      35.13
