30

Cu       4.89       7.71      22.35
C       6.52       6.58      24.56
Cu       2.73       6.15      22.60
C       5.17       8.37      25.15
Cu       2.49       5.27      20.21
Cu       2.11       3.67      22.05
Cu       0.21       1.89      22.26
C       7.02       8.93      20.75
C       4.89       9.47      20.03
C      -0.08       2.78      24.99
C      -2.05       1.93      24.10
C       3.53       3.11      18.52
C       1.21       3.13      18.65
C       1.52       7.68      18.88
I       4.86       5.08      21.46
C       3.62       6.98      18.18
I       2.33       8.72      22.56
I       0.15       5.19      21.63
I       2.81       1.38      22.61
N      -0.75       2.26      23.93
C      -1.71       1.34      20.17
N       2.55       6.82      18.99
N      -0.51       0.98      20.69
C       0.09      -0.12      20.17
N       2.60       5.57      24.51
N       5.61       7.52      24.20
N       5.68       8.79      20.89
N       2.40       3.64      19.04
C       3.45       4.66      25.04
C       1.61       6.06      25.29
