19

Ni       3.18      -3.99       6.91
N       2.37      -4.93       5.18
N       1.08      -1.71       6.72
N       1.51      -2.92       7.12
N       1.98      -5.33       8.08
N       3.98      -3.06       8.65
C       4.08      -1.40       5.38
C       5.60      -3.17       5.44
C       5.82      -4.51       5.94
C       1.30      -4.39       4.57
C       2.76      -6.16       4.79
C       2.27      -6.59       8.45
C       0.75      -4.82       8.38
C       0.53      -3.47       7.89
C       5.06      -3.60       9.26
C       3.60      -1.83       9.03
N       5.28      -6.27       7.10
N       4.85      -5.07       6.70
N       4.38      -2.66       5.74
