20

Zn       7.01       8.90      25.66
Zn       9.78       8.86      25.57
N      11.83       8.88      25.66
N       4.95       8.87      25.59
O       7.19      10.95      25.41
O       9.43      10.89      25.73
O       9.61       9.07      23.53
O       7.38       8.65      23.67
O       9.45       6.83      25.45
O       7.24       6.87      25.96
O       7.32       9.15      27.69
O       9.54       8.69      27.61
C       8.33      11.49      25.57
C       8.45       8.89      23.02
C       8.34       6.27      25.72
C       8.45       8.91      28.22
C      12.53       9.71      24.85
C      12.48       8.07      26.49
C       4.30       9.76      24.81
C       4.25       8.00      26.33
