18

Al       2.53       6.40      19.77
O       5.35       5.40      21.36
Al       5.87       6.40      19.77
O       3.05       4.96      18.62
O       1.99       7.40      18.22
O       3.06       5.37      21.33
O       2.00       7.85      20.92
O       5.33       4.93      18.65
O       4.20       7.19      19.66
O      -0.28       7.88      20.88
O      -0.29       7.36      18.18
O       0.85       5.61      19.92
H       4.20       8.13      19.88
H       0.85       4.68      20.19
C       4.19       4.51      18.27
C       4.21       5.12      21.84
C       0.86       8.29      21.28
C       0.85       7.65      17.71
