20

Zn       3.58       5.30      11.17
Zn       6.34       5.28      10.91
C       4.85       7.89      10.74
C       4.81       5.01       8.42
C       5.07       2.68      11.17
C       5.30       5.85      13.52
C      -0.53       5.88      10.06
C       0.64       4.50      12.01
C       0.86       5.83      10.20
C      -0.75       4.60      11.89
N      -1.37       5.30      10.90
N       1.49       5.17      11.16
O       3.72       7.34      10.60
O       5.98       7.29      10.84
O       5.98       5.11       8.94
O       3.72       4.96       9.06
O       6.23       3.20      11.06
O       3.98       3.30      11.37
O       4.17       6.06      12.97
O       6.30       5.29      12.97
