18

Zn       5.83       8.35       6.98
Zn       5.84       5.60       6.82
C       8.44       7.02       6.94
C       5.86       2.38       6.61
C       5.79      11.58       7.25
C       5.85       6.73       9.52
C       3.25       6.96       6.96
O       7.88       8.17       7.00
O       7.83       5.91       6.85
O       5.83       7.90       9.00
O       5.88       5.61       8.92
O       3.80       8.10       6.98
O       3.85       5.84       6.92
N       5.80      10.42       7.20
N       5.87       3.54       6.65
O       5.85       8.30       4.93
C       5.84       7.19       4.30
O       5.81       6.02       4.80
