18

Al       0.73       6.59      10.95
Al       4.07       6.60      11.01
H       2.42       4.92      10.43
H      -0.93       8.29      11.49
C       2.38       7.76      13.11
C       2.41       8.58       9.59
C      -0.96       5.43       8.85
C      -0.93       4.60      12.37
O       3.53       8.12       9.98
O       1.26       7.49      12.57
O       0.19       5.07      11.99
O       1.26       8.11       9.89
O       0.19       5.68       9.34
O       3.53       7.50      12.62
O       2.40       5.81      10.80
O      -2.08       5.71       9.40
O      -2.08       5.07      12.07
O      -0.94       7.38      11.16
