9

Zn       8.69       8.99      14.34
C       7.59      11.54      13.31
I       8.29       7.64      16.46
I      10.92       9.78      13.34
C       6.66      10.99      15.36
N       7.51      10.70      14.36
N       7.75       7.91      12.82
C       8.47       7.37      11.82
C       6.43       7.65      12.90
