52

C       2.03      14.23       2.16
Nd      -3.13      10.15       0.25
C      -6.92       9.76      -3.31
Nd       0.12      12.81      -0.25
C       3.90      13.20       3.31
C      -6.18       7.42      -3.86
C       3.16      15.54       3.86
N      -6.03       8.63      -3.06
C      -5.27       8.92       1.70
N       3.02      14.33       3.06
C       2.25      14.04      -1.70
O      -5.41      10.14       1.31
O       2.40      12.82      -1.31
O      -4.25       8.23       1.36
C      -6.32       8.32       2.56
O       1.24      14.73      -1.36
C       3.31      14.64      -2.56
O      -1.45      11.75       1.39
O      -1.56      11.21      -1.39
H      -5.01      12.51      -0.52
O      -2.09      14.14      -0.52
H       2.00      10.45       0.52
O      -0.92       8.82       0.52
H      -3.52      13.13      -0.36
O      -4.12      12.38      -0.11
H       0.50       9.83       0.36
O       1.10      10.58       0.11
O      -0.66      14.79       1.06
O      -2.35       8.17      -1.06
O      -2.53      10.34       2.72
O      -0.48      12.62      -2.72
O      -4.81       9.75      -1.48
O       1.79      13.21       1.48
C      -1.74      14.97       0.41
H      -4.42       7.82      -2.06
C      -1.27       7.99      -0.41
H       1.41      15.14       2.06
C      -1.61      11.18       2.54
H      -6.59      10.61      -2.71
C      -1.41      11.78      -2.54
H       3.58      12.34       2.71
H      -7.95       9.51      -3.03
H       4.94      13.45       3.03
H      -6.90      10.01      -4.38
H       3.88      12.95       4.38
H      -6.25       7.68      -4.92
H       3.23      15.28       4.92
H      -7.08       6.87      -3.58
H       4.07      16.09       3.58
H      -5.31       6.78      -3.70
H       2.30      16.18       3.70
C      -5.05       8.72      -2.16
