15

C       5.85       4.46      14.81
C       6.78       2.65      15.70
C       0.47       5.79      18.86
Cu       3.62       4.83      16.67
C       1.38       6.67      17.04
Cu       4.94       2.25      17.95
C       4.55       0.42      20.20
Cu       2.32       3.55      19.26
C       2.73       1.32      21.10
N       5.70       2.99      16.44
N       5.13       4.11      15.89
N       2.11       5.60      17.40
N       1.54       5.05      18.53
N       3.07       2.05      20.03
N       4.20       1.49      19.47
