36

Zn       7.61      11.63       8.71
Zn      10.25      15.37       8.89
Zn      10.14      12.54      10.56
Zn       7.67      14.47       7.12
C       7.66      17.55       6.57
C      11.62      10.93       8.46
C       9.14      10.09      12.24
C       9.86      13.38       5.40
C      11.66      14.07       6.48
N       7.93      10.60      10.48
N       8.85      13.98      11.03
N       6.52      14.34       8.75
N       8.88      15.15      10.33
N       6.52      13.15       9.41
N       8.21      16.44       7.09
N       9.03      10.96      11.22
N       6.69      11.71       6.86
N      11.82      14.90      10.10
N      10.54      11.66       8.82
N       9.49      13.81       6.62
N      10.59      14.23       7.29
N       9.48      11.25       8.08
N       6.68      12.91       6.20
N      11.80      13.72      10.79
N       9.28      16.83       7.86
C       7.37       9.52      11.06
C       9.89      10.27       7.25
C       6.03      12.75       5.03
C       9.39      18.17       7.82
C      13.01      13.56      11.37
C       8.27      14.22      12.22
C       5.45      15.05       9.15
C       8.32      16.11      11.08
C       6.03      10.82       6.10
C       5.45      13.12      10.22
C      13.03      15.45      10.25
