62

Zr       0.21       3.56      17.47
Zr       0.29       0.81      15.25
Zr       0.12       1.40      20.25
O       2.46       0.62      14.27
O       2.21       4.61      17.85
Zr      -2.34       1.14      17.67
O       0.23       4.46      15.56
O       0.08       5.45      18.89
Zr       2.65       1.01      17.82
H       2.27       2.88      15.67
O      -0.82       2.02      16.60
O       1.67       2.36      16.24
H      -1.75       3.39      19.52
O       0.46       2.59      13.83
O       0.28      -1.01      14.23
H      -0.58       6.06      18.51
H      -0.54       5.03      15.40
O      -1.70       1.07      14.15
H       0.34       3.44      14.45
H       0.97       5.85      18.83
H       1.33       2.69      13.41
Zr      -0.01      -1.45      18.04
O       3.78       1.31      19.66
O       3.67      -1.01      17.92
O       1.43      -0.28      19.38
O      -2.00       1.29      21.21
C      -2.98       4.32      17.18
O       1.24       2.22      18.73
O      -1.19       2.76      19.03
C       3.41       4.22      17.70
O      -1.26      -0.45      16.40
O       1.22      -0.06      16.85
C       3.63       0.77      14.75
C      -2.91       1.03      14.51
O       3.82       3.04      17.64
C       3.45       1.43      20.88
H      -1.82      -1.03      15.85
C      -3.19       1.37      20.75
C      -3.27      -1.95      18.00
C       3.19      -2.18      17.82
H       1.89      -0.87      20.01
H       1.07      -1.14      13.68
O       3.94       0.87      15.98
O      -1.01       0.19      18.89
H       0.14      -2.15      15.31
H      -0.82      -3.12      19.86
O       2.28       1.33      21.36
H       0.80       0.32      22.66
H      -0.66       3.35      21.92
O      -2.10      -2.42      18.02
O      -3.60      -0.73      17.96
O       1.99      -2.54      17.85
H      -0.74       0.02      22.48
O      -3.55       1.43      19.54
O      -3.38       1.03      15.69
O       0.14      -0.08      22.06
H       0.83      -3.31      16.16
O       0.12       2.91      21.56
O       0.00      -2.64      19.64
O       0.02      -2.77      16.13
O      -1.79       4.74      17.35
O      -3.34       3.12      17.33
