23

Zn       7.87       4.89       8.43
Zn      11.06       4.93       8.36
Zn       9.40       7.70       8.36
Zn       9.38       5.76       5.80
C      11.92       4.31       5.65
C      11.90       7.35       9.81
C       9.42       8.68       5.61
O      10.62       3.60       9.75
O       8.43       3.21       9.28
O       6.63       4.44       6.98
O       7.99       4.53       5.16
O       7.72       8.14       9.28
O       6.96       6.03       9.73
O      11.10       5.11       5.10
O      11.97       4.00       6.89
O      10.85       8.05       9.65
O      12.22       6.30       9.16
O       9.61       8.95       6.85
O       9.06       7.57       5.12
O       9.44       5.85       7.75
C       9.53       2.94       9.86
C       6.91       4.22       5.75
C       6.89       7.31       9.78
