11

Zn       6.09       8.50      13.42
C       7.58       7.01      12.02
C       4.59       9.99      12.02
C       5.22       5.98      14.96
C       6.96      11.02      14.96
N       5.66       7.24      15.06
N       6.52       9.76      15.06
C       5.85       7.80      16.28
C       6.33       9.21      16.28
O       7.97       7.97      12.80
O       4.21       9.03      12.81
