10

Al       4.08      29.25      16.88
C       6.13      27.20      16.82
C       6.13      30.31      15.13
C       6.16      30.26      18.65
O       5.15      29.52      15.31
O       5.18      30.44      17.87
O       5.15      27.74      17.42
O       2.97      30.49      15.94
O       2.97      27.81      16.27
O       3.01      29.45      18.47
