50

Mg      11.41      11.29       7.74
Mg       6.17       8.83       5.94
Mg      11.67       8.34       6.60
Mg       5.90      10.80       8.40
Mg       8.79      10.56       6.15
Mg      14.29       9.07       8.19
H      11.12      10.45       5.16
H       6.46      11.54       5.95
H      11.96       9.18       9.18
H      16.62       8.09       8.39
C       9.78      11.68      10.28
C       7.79       6.28       6.33
C      13.30       7.94       4.06
C      15.29      13.35       8.01
C      11.93      12.34      10.78
C       5.64       5.60       5.87
C      11.15       7.29       3.56
C      17.44      14.02       8.47
C       8.85      11.13       9.24
C       8.73       7.45       6.55
C      14.23       8.50       5.10
C      14.35      12.18       7.79
C       8.01       9.36       3.52
C       9.56      13.42       6.49
C      15.07      10.26      10.82
C      13.51       6.20       7.85
N      11.07      11.83       9.89
N       6.51       6.61       6.07
N      12.01       7.79       4.45
N      16.57      13.02       8.26
O       9.40      10.75       8.15
O       8.18       8.59       6.58
O      13.68       8.88       6.19
O      14.90      11.03       7.76
O       7.62      11.09       9.49
O       9.96       7.21       6.66
O       4.45       8.53       4.85
O      13.12      12.41       7.68
O       7.00       8.76       4.01
O      10.57      13.15       7.21
O       5.06      10.87      10.33
O      12.51       6.48       7.13
O       8.73      10.21       4.14
O       8.84      12.58       5.87
O      14.35       9.42      10.20
O      14.24       7.05       8.47
O      10.87      10.20       6.06
O       6.70      10.75       6.46
O      12.21       9.42       8.28
O      16.37       8.88       7.88
