24

Al      10.03       3.79       0.01
Al       8.32       6.49      -0.06
Al       6.83       3.89      -0.06
O      10.58       4.73      -1.57
O       7.13       7.13      -1.30
O       6.75       2.67      -1.39
H      12.09       2.94      -0.73
O       9.01       2.38      -1.30
O       9.70       6.81      -1.34
C       7.88       2.17      -1.80
O       5.97       5.18      -1.38
C      10.45       5.94      -1.91
C       6.23       6.35      -1.79
O      10.68       5.33       1.26
O       6.79       6.60       1.26
C       8.33       2.29       1.79
C      10.30       6.43       1.74
O       7.21       2.52       1.21
C       5.90       5.79       1.67
O       9.44       2.83       1.53
O       9.34       7.17       1.27
O       5.68       4.61       1.18
O       8.38       4.73      -0.05
O      11.52       2.88       0.05
