15

O       0.92      11.00      12.59
N      -2.65       9.85      10.64
Cd      -1.33      10.99       9.11
O       0.42      10.03      10.67
O      -0.87       8.98       7.90
C      -2.30       8.56      10.85
C      -1.39      14.14       9.11
O       0.83      11.60       8.09
N       0.81      12.04       6.91
N      -1.74       9.11       6.97
C      -3.35      10.50      11.60
C      -2.62      13.36       7.31
N       0.32      11.00      11.50
O      -0.45      11.98      11.17
N      -1.83      13.10       8.38
