23

Zn       1.62       8.04       5.33
Zn      -1.55       8.01       5.26
Zn       0.03       6.41       7.59
Zn       0.00       9.59       7.66
C       0.05       7.95      10.08
C       2.51       5.43       6.36
C      -2.51      10.56       6.42
C      -2.55       5.51       6.48
C       0.08       8.04       2.84
C       2.57      10.54       6.59
O       0.01       8.02       6.46
O       1.18       8.28       3.45
O       1.50       5.21       7.10
O      -2.66       9.62       5.57
O      -1.63       5.37       7.35
O      -2.70       6.44       5.63
O       1.58      10.74       7.36
O       2.80       9.53       5.85
O       2.71       6.42       5.58
O      -1.57      10.72       7.27
O       0.28       6.86       9.47
O      -1.06       7.82       3.38
O      -0.17       9.09       9.54
