36

Zn       7.20      11.58       8.76
Zn       9.83      15.29       8.69
Zn       9.75      12.58      10.51
C      10.00      17.34       6.30
N       6.87      12.81      10.31
Zn       7.30      14.23       6.85
N       7.99      15.68       9.30
N      10.88      14.16      11.17
N       5.55      13.16       6.84
N      10.94      15.29      10.39
N       5.52      12.06       7.67
N       6.95      15.26       8.53
N       7.94      13.24      11.02
N      10.69      13.64       7.97
N       8.38      11.57       7.12
N       9.27      10.61      10.64
N       8.47      15.77       6.08
N       9.47      16.22       6.88
N       8.23      10.19       9.85
N       8.40      12.66       6.31
N      10.72      12.52       8.75
C       5.76      12.97      11.06
C       8.27       8.85       9.79
C       8.84      12.28       5.10
C       7.56      16.71      10.06
C      11.82      11.81       8.44
C      11.66      14.36      12.25
C       4.30      13.36       6.39
C      11.75      16.18      11.00
C       8.81      10.51       6.43
C       4.26      11.60       7.71
C      11.78      13.63       7.18
C       5.87      16.02       8.81
C       9.94       9.52      11.06
C       7.51      13.68      12.22
C       8.37      16.59       5.02
