23

Zn      14.39       9.98       8.22
Zn      14.34       8.11      10.82
Zn      16.99       9.68      10.00
Zn      16.08       7.24       8.21
C      16.26       9.11      12.80
C      14.45       8.13       5.93
O      15.43       8.72       9.31
O      15.16       8.52      12.55
O      15.37       7.37       6.39
O      17.10       9.54      11.94
O      13.92       9.13       6.53
O      12.65      10.31       9.08
O      18.04       7.14       8.10
O      14.07       6.16      10.62
O      16.85      11.60       9.65
O      15.54       5.52       9.00
O      15.21      11.76       8.08
O      12.55       8.94      10.90
O      18.66       9.01       9.24
C      14.68       5.30       9.92
C      16.13      12.25       8.82
C      12.06       9.76      10.06
C      18.91       7.95       8.57
