23

Zn      18.38       7.29       8.85
Zn      16.90       4.41       8.66
Zn      18.62       5.48       6.18
Zn      20.09       4.59       8.86
C      15.79       6.75      10.13
C      16.11       3.92       5.88
C      18.51       8.44       6.14
C      21.22       4.10       6.16
C      20.90       6.96      10.40
C      18.51       2.43      10.13
O      18.49       5.46       8.15
O      16.74       7.59       9.88
O      15.86       3.76       7.12
O      18.60       7.33       5.54
O      15.72       5.54       9.75
O      18.42       8.64       7.40
O      17.11       4.54       5.38
O      20.27       4.65       5.50
O      21.12       5.75      10.05
O      21.29       4.00       7.43
O      19.91       7.68      10.03
O      17.35       2.83       9.76
O      19.63       2.97       9.87
