10

Al       0.04      14.53      16.77
O      -1.01      15.47      18.06
O      -1.01      15.17      15.31
O      -1.01      12.94      16.95
O       1.10      16.11      16.98
O       1.10      13.56      18.04
O       1.10      13.91      15.30
C      -1.97      14.57      14.73
C      -1.97      12.73      17.76
C      -1.97      16.28      17.84
