13

In      15.88       8.97       3.21
O      17.65      10.07       4.39
O      14.12       7.88       4.39
O      14.12      10.07       2.03
O      17.65       7.88       2.03
C      16.76      10.71       5.04
C      15.00       7.24       5.04
C      15.00      10.71       1.38
C      16.77       7.24       1.38
O      15.51      10.56       4.79
O      16.25       7.38       4.79
O      16.25      10.57       1.63
O      15.52       7.39       1.63
