15

Cu      11.17      13.41      11.17
Cu      11.17      11.15      13.41
Cu      13.46      11.20      11.20
C       8.98      14.39      12.84
C       8.99      12.83      14.41
C      14.44      12.88       9.01
C      12.85      14.41       8.98
C      12.84       8.96      14.39
N       9.89      12.48      13.46
N       9.89      13.45      12.49
N      12.51      13.48       9.90
N      13.50      12.53       9.92
N      13.51       9.92      12.52
N      12.51       9.88      13.46
C      14.45       9.02      12.88
