23

Zn       2.19       6.29       7.00
Zn      -1.05       6.38       7.23
Zn       0.68       5.45       9.71
Zn       0.57       3.57       7.11
O       0.60       5.43       7.75
O       2.22       3.13       6.20
O      -0.97       6.12      10.48
O       3.19       5.12       5.80
O      -2.17       6.88       8.73
O       2.26       6.43      10.36
O      -0.99       3.23       5.96
O       0.87       3.61      10.44
O       0.37       2.31       8.62
O      -0.59       7.99       6.19
O       1.70       7.94       6.03
O       3.45       6.81       8.43
O      -2.12       5.22       6.04
C      -1.99       6.70       9.98
C      -1.96       4.01       5.68
C       3.27       6.83       9.70
C       0.61       2.51       9.86
C       3.11       3.85       5.65
C       0.55       8.43       5.81
