10

Al       0.13       4.05       6.94
O      -0.94       4.51       8.46
O      -0.96       2.48       6.64
O      -0.95       5.03       5.76
O       1.21       3.33       8.40
O       1.23       5.58       6.83
O       1.20       3.10       5.65
C      -1.90       3.89       9.02
C      -1.91       2.29       5.83
C      -1.91       5.83       6.01
