23

Zn      16.22      16.38      22.45
Zn      17.76      15.47      25.13
Zn      16.02      18.17      25.11
Zn      14.56      15.33      24.99
O      16.15      16.34      24.42
O      17.86      15.54      21.78
C      18.83      15.01      22.41
O      18.79      16.66      26.31
C      16.13      19.33      22.41
O      16.19      18.22      21.78
C      13.74      14.82      22.19
O      18.97      14.90      23.68
O      17.53      18.56      26.30
O      14.38      18.47      26.15
O      14.70      15.44      21.62
O      17.31      13.86      26.17
O      13.55      14.69      23.44
O      13.34      16.43      26.06
O      15.02      13.75      26.06
C      16.18      13.33      26.43
C      18.53      17.86      26.67
O      16.06      19.51      23.67
C      13.43      17.66      26.42
