20

Zn       6.71       8.99      16.58
Zn       9.49       9.04      16.60
N      11.55       9.02      16.51
N       4.65       8.98      16.63
O       6.92       6.96      16.84
O       9.15       7.01      16.45
O       9.35       8.85      18.65
O       7.11       9.24      18.60
O       9.14      11.07      16.76
O       6.91      11.02      16.31
O       7.01       8.76      14.55
O       9.23       9.23      14.58
C       8.05       6.40      16.64
C       8.22       9.03      19.20
C       8.02      11.62      16.51
C       8.13       8.99      13.99
C      12.24       8.17      17.29
C      12.20       9.85      15.69
C       3.99       7.98      17.24
C       3.95       9.94      16.00
