15

Cu      21.47      22.44      22.54
Cu      19.00      24.36      22.75
Cu      19.73      22.52      25.22
C      17.48      24.04      26.36
C      22.16      24.29      20.39
C      20.47      25.70      20.61
C      21.68      20.46      25.96
C      22.77      20.30      24.04
C      16.78      25.03      24.51
N      21.27      23.75      21.26
N      21.81      21.23      23.89
N      21.13      21.33      25.09
N      18.29      23.67      25.35
N      17.87      24.30      24.20
N      20.22      24.63      21.39
