14

Zn       7.97       9.27      32.13
C       9.26      11.86      32.13
C       9.26       6.68      32.13
O      10.41       7.24      32.13
O       8.12       9.27      30.12
O       8.12       9.27      34.14
C       9.27       9.27      29.54
C       9.27       9.27      34.71
Zn      10.57       9.27      32.13
O      10.41      11.30      32.13
O      10.41       9.27      30.12
O      10.41       9.27      34.14
O       8.12       7.25      32.13
O       8.12      11.29      32.13
