23

Zn      19.62      11.32       0.66
Zn      21.22      12.25      -1.97
Zn      22.83      11.32       0.66
Zn      21.22      14.11       0.66
O      21.22      12.25       0.00
O      18.50      10.68      -0.83
O      22.81      11.34      -2.68
O      22.36       9.77       1.76
O      19.64      11.33      -2.68
O      20.09       9.77       1.76
O      23.94      10.68      -0.83
O      23.94      12.51       1.76
O      19.64      14.47       1.76
O      22.81      14.48       1.76
O      18.50      12.51       1.76
O      21.22      14.08      -2.68
O      21.22      15.39      -0.83
C      18.66      10.77      -2.09
C      23.78      10.77      -2.09
C      21.22       9.30       2.09
C      23.78      13.73       2.09
C      18.66      13.73       2.09
C      21.22      15.21      -2.09
