17

C       2.78       2.94       4.26
Zn       3.29       0.00       3.31
N       1.16      -0.20       3.37
N       3.53      -2.13       3.25
C       6.27       0.10       2.36
N       3.05       2.13       3.25
C       0.41      -0.35       4.53
C       3.53      -2.89       2.09
C       3.05       2.89       2.09
C       6.17       0.35       4.53
N       5.42       0.20       3.37
C       3.29      -0.00      -0.10
C       3.29       0.00       6.72
O       3.29       0.00       1.16
O       3.29       0.00       5.47
C       0.31      -0.10       2.36
C       3.80      -2.94       4.26
