17

Ni      -2.64       2.89      12.55
C      -1.29       3.40      15.18
O      -2.08       0.89      13.36
N      -0.93       2.97      11.40
O      -3.31       4.58      11.54
C       0.28       2.74      11.92
C      -4.56       1.00      11.09
H      -4.81       3.62      13.46
N      -1.71       3.98      14.04
C      -4.48       5.09      11.62
H      -4.80       2.03      13.30
H      -1.63       0.25      12.72
C      -1.03       3.31      10.09
O      -4.36       2.78      13.81
H      -1.48       0.86      14.13
C      -1.41       5.28      13.83
O      -3.51       1.73      10.98
