10

Al       4.01       4.31       2.49
C       6.02       6.10       3.47
O       5.07       3.66       1.03
O       5.07       5.90       2.65
O       5.07       3.38       3.79
O       2.95       4.91       1.02
O       2.95       2.74       2.71
O       2.95       5.29       3.74
C       6.02       4.26       0.45
C       6.02       2.57       3.55
