23

Zn      20.00      13.48       8.28
Zn      18.58      10.62       8.57
Zn      18.24      12.30       5.88
Zn      16.79      13.25       8.60
C      21.07      11.25       9.92
C      18.44       9.36       5.92
C      20.76      13.82       5.49
C      15.71      13.74       5.86
C      18.38      15.45       9.78
C      16.01      10.86      10.06
O      18.40      12.43       7.84
O      21.25      12.31       9.25
O      18.73       9.26       7.16
O      19.89      13.00       5.07
O      20.06      10.48       9.85
O      20.91      14.20       6.70
O      18.14      10.42       5.28
O      16.70      13.30       5.19
O      17.23      14.92       9.53
O      15.57      13.66       7.12
O      19.52      15.01       9.43
O      16.91      10.15       9.51
O      15.84      12.12       9.88
