18

Zn       9.60       8.19       8.61
Zn       6.81       8.26       8.59
C       8.24      10.82       8.58
C       8.17       5.64       8.61
C       8.25       8.23       5.99
C       8.16       8.23      11.21
C      12.81       8.33       8.52
C       3.60       8.13       8.67
N       4.75       8.24       8.57
N      11.66       8.22       8.62
O       9.36      10.22       8.61
O       7.04       6.24       8.58
O       7.08      10.29       8.55
O       9.33       6.17       8.64
O       9.38       8.16       6.55
O       7.03       8.30      10.64
O       7.10       8.26       6.54
O       9.31       8.20      10.65
