20

Zn       9.69       8.91      16.61
Zn       6.93       8.91      16.72
N       4.88       8.86      16.79
N      11.75       8.93      16.58
O       9.49      10.96      16.86
O       7.25      10.94      16.55
O       7.22       9.08      18.75
O       9.44       8.69      18.64
O       7.29       6.88      16.81
O       9.52       6.85      16.41
O       9.26       9.09      14.62
O       7.02       8.76      14.64
C       8.36      11.53      16.71
C       8.36       8.88      19.29
C       8.40       6.28      16.61
C       8.14       8.92      14.05
C       4.19       9.59      17.68
C       4.22       8.11      15.89
C      12.41       9.82      17.33
C      12.44       8.01      15.88
