20

Zn       9.23       9.09      31.88
Zn       6.46       9.07      31.85
N       4.41       9.04      31.94
N      11.29       9.11      31.82
O       9.10       7.03      31.76
O       6.84       7.04      31.96
O       6.61       8.94      29.80
O       8.86       9.19      29.87
O       6.74      11.13      31.74
O       8.99      11.13      32.03
O       8.94       8.97      33.91
O       6.69       9.22      33.89
C       7.96       6.46      31.85
C       7.76       9.05      29.25
C       7.86      11.70      31.88
C       7.81       9.10      34.48
C       3.70       8.14      31.22
C       3.76       9.95      32.68
C      11.94       8.33      30.95
C      11.98       9.89      32.67
