20

Zn       2.05       5.13       5.36
Zn       4.80       5.18       5.55
C       3.38       7.75       5.43
C      -2.14       4.83       4.36
C      -0.75       4.81       4.32
C       3.36       4.99       8.06
C      -0.68       5.74       6.37
C       3.46       2.55       5.29
C       3.47       5.09       2.82
C      -2.08       5.75       6.41
N      -2.84       5.27       5.44
N       0.01       5.25       5.36
O       2.28       7.16       5.67
O       4.51       7.17       5.28
O       2.32       4.77       7.36
O       4.52       5.30       7.60
O       2.35       3.11       5.02
O       4.53       3.15       5.66
O       2.33       5.35       3.32
O       4.56       4.94       3.46
