18

Al       5.20       8.29      20.16
O       4.68       7.21      21.64
Al       1.85       8.29      20.22
O       8.03       9.38      18.73
O       4.65       6.92      18.89
O       1.30       9.66      21.49
O       5.77       9.36      18.69
H       3.47       9.83      19.40
O       2.42       7.22      21.68
H       6.82       6.75      20.98
O       3.52       9.11      20.05
C       3.56       6.81      22.08
O       6.87       7.47      20.32
C       6.91       9.77      18.29
C       3.50       6.55      18.49
C       6.85      10.03      21.89
O       2.38       6.90      18.99
O       5.73       9.69      21.39
