28

Co       5.96       5.67      16.74
Co       9.87       5.65      16.75
H       7.70       7.70      16.79
O       9.28       7.65      16.98
O       5.38       5.90      18.73
H      11.60       5.71      18.78
H       6.41       8.17      15.96
H      10.31       4.88      19.25
O       6.69       7.61      16.70
H       4.23       3.60      16.66
O      10.59       5.62      18.69
O       5.24       3.72      16.70
H       5.62       3.03      17.26
H       8.14       5.58      14.68
O       9.14       5.62      14.80
O       7.91       5.04      17.38
H       8.06       4.02      17.25
H       9.53       6.18      14.11
O       4.01       6.30      16.12
H       7.77       5.23      18.39
H       4.15       6.17      15.10
H       3.86       7.31      16.31
C       5.76       5.43      13.69
C       9.66       2.61      16.51
C      10.03       8.71      16.99
C       6.12       5.91      19.79
O       6.53       5.46      14.72
O      10.44       3.64      16.54
