21

Zn       6.47      20.30      11.72
Zn       3.94      21.33      13.50
Zn       9.00      22.36      11.72
O       7.88      19.48      10.63
O       5.06      18.94      11.55
O       3.31      19.60      12.84
O       9.63      20.93      10.55
O       5.35      20.79      14.76
O       2.53      21.86      14.76
O       8.38      22.65      13.55
O       7.10      20.00      13.54
O      10.41      23.71      11.56
O       7.60      23.18      10.63
O       5.84      21.73      10.55
O       4.56      23.06      12.85
C       9.01      19.87      10.18
C       3.94      18.75      12.11
C       6.47      20.21      14.64
C       9.01      22.44      14.64
C      11.54      23.90      12.12
C       6.47      22.79      10.18
