16

Zn       3.60       4.42       4.43
Si      -0.27       4.57       4.58
C       2.79       4.74       1.38
C       4.66       4.08       7.38
C       2.79       1.37       4.74
C       4.66       7.37       4.09
S       5.17       4.00       1.43
S       2.23       4.78       7.38
S       5.17       1.42       4.01
S       2.23       7.37       4.80
N       3.75       4.42       2.23
N       3.63       4.36       6.58
N       3.75       2.22       4.43
N       3.63       6.56       4.38
F       1.52       4.74       4.76
F       5.64       4.33       4.34
