23

Zn      13.45       8.37       9.24
Zn      14.09       7.35       6.26
Zn      13.63      10.41       6.74
Zn      11.17       8.36       6.93
C      15.47       6.33       8.64
C      10.58       7.92       9.80
C      14.43      11.13       9.47
C      11.68       5.90       5.43
C      14.99       9.39       4.34
C      10.86      11.17       6.11
O      15.51       6.62       7.39
O      14.77       6.92       9.53
O      10.17       8.11       8.61
O      11.80       7.83      10.18
O      14.59      11.28       8.21
O      13.99      10.09      10.06
O      10.86       6.85       5.72
O      12.92       5.87       5.72
O      14.71      10.39       5.10
O      14.78       8.16       4.62
O      12.05      11.55       6.40
O      10.44       9.97       6.06
O      13.07       8.64       7.33
