14

C      15.94      18.54      32.13
C      18.51      18.54      34.71
C      18.51      18.54      29.55
Zn      18.53      17.24      32.13
C      21.12      18.54      32.13
Zn      18.53      19.84      32.13
O      16.50      17.39      32.13
O      16.50      19.68      32.13
O      18.52      17.39      34.13
O      18.52      17.40      30.12
O      18.52      19.68      34.13
O      18.52      19.68      30.12
O      20.55      17.39      32.13
O      20.55      19.68      32.13
