15

Cu      18.55      21.34      20.06
Cu      18.27      18.84      21.97
Cu      20.86      19.16      20.12
N      16.98      20.15      22.03
N      17.18      21.29      21.29
N      19.93      21.45      18.83
N      20.93      20.51      18.86
N      20.81      17.82      21.39
N      19.65      17.62      22.11
C      16.31      22.23      21.73
C      15.98      20.39      22.91
C      21.83      20.84      17.91
C      20.21      22.34      17.86
C      19.90      16.67      23.04
C      21.75      16.99      21.88
