23

Zn       4.61       8.05       5.55
Zn       1.60       7.30       6.65
Zn       2.46      10.36       6.16
Zn       3.68       8.75       8.54
C       3.32       5.48       5.09
C       6.49       8.77       7.73
C       3.95      10.25       3.65
C       2.24       6.33       9.36
C      -0.36       9.41       6.40
C       2.49      11.36       8.80
O       2.15       5.88       5.41
O       4.37       6.19       4.94
O       5.61       9.01       8.62
O       6.29       8.28       6.57
O       3.10      10.85       4.39
O       4.67       9.25       3.95
O       3.22       7.13       9.53
O       1.42       6.32       8.38
O       0.50      10.35       6.38
O      -0.13       8.16       6.31
O       2.69      10.25       9.39
O       2.86      11.66       7.61
O       3.09       8.58       6.67
