15

Cu      20.85      17.43       2.23
Cu      23.36      18.63       3.71
Cu      22.17      15.85       4.66
C      21.17      19.90       0.69
C      23.17      20.50       1.45
C      20.02      13.98       3.95
N      22.73      19.47       2.20
N      21.50      19.08       1.71
N      20.24      15.75       2.66
C      19.29      14.96       2.11
N      20.70      15.13       3.79
N      24.01      17.83       5.24
C      24.93      18.22       6.15
N      23.62      16.55       5.55
C      24.32      16.14       6.62
