18

Al       5.36       5.47       5.61
O       3.69       4.68       5.63
Al       2.01       5.47       5.63
O       1.48       4.24       7.02
O       1.48       4.18       4.29
O       7.04       6.26       5.60
H       3.69       3.72       5.46
H       7.04       7.23       5.70
C       3.68       7.00       3.75
C       3.69       7.13       7.38
C       7.03       3.88       7.44
C       7.04       3.81       3.86
O       2.55       6.75       6.97
O       4.83       6.68       4.20
O       5.90       4.18       4.29
O       4.83       6.75       6.94
O       5.89       4.25       7.02
O       2.54       6.69       4.23
