10

O       2.94       7.74       2.65
Al       3.99       7.20       4.16
C       5.99       9.04       5.09
O       5.04       6.50       2.71
O       5.04       8.80       4.28
O       5.04       6.30       5.48
C       5.99       5.47       5.28
O       2.94       5.62       4.45
O       2.94       8.24       5.38
C       2.00       7.09       2.10
