20

Zn       6.43       8.32       1.24
Zn       6.39       5.54       1.24
C       6.39       6.92      -1.38
C       3.80       6.95       1.24
C       6.44       6.92       3.86
C       9.04       6.93       1.25
C       5.59      11.03       0.41
C       7.26      11.02       2.05
C       7.24       2.82       2.04
C       5.57       2.83       0.39
N       6.42      10.37       1.23
N       6.40       3.48       1.22
O       6.41       8.06      -0.80
O       6.38       5.79      -0.80
O       4.33       5.79       1.25
O       4.40       8.06       1.25
O       6.42       5.78       3.29
O       6.46       8.06       3.29
O       8.47       8.08       1.25
O       8.45       5.80       1.26
