14

Zn       3.92      18.75      15.13
Zn       2.38      16.52      15.26
O       3.24      15.64      16.77
C       1.28      18.11      13.48
O       2.98      19.87      16.40
O       1.62      18.05      16.48
O       2.30      18.80      13.80
O       1.04      16.91      13.87
O       5.12      18.24      13.68
O       3.95      16.30      13.89
C       4.28      16.32      17.09
C       4.82      17.03      13.34
O       4.67      17.39      16.53
C       1.91      19.25      16.79
