23

Zn       1.59       9.24       1.15
Zn      -1.59       9.24       1.16
Zn      -0.00      10.85      -1.12
Zn      -0.00       7.63      -1.12
O      -0.00       9.24       0.01
O       0.01       8.09      -3.03
O      -0.02      10.37      -3.03
O       1.14       9.19       3.06
O      -1.14       9.29       3.06
O       1.59      11.95      -0.80
O      -1.59       6.52      -0.80
O      -1.58      11.96      -0.79
O       1.58       6.52      -0.79
O      -2.71       7.66       0.83
O       2.71      10.82       0.83
O       2.72       7.67       0.82
O      -2.72      10.81       0.82
C      -0.01       9.23      -3.61
C      -0.00       9.24       3.64
C       2.56      11.79       0.02
C      -2.56       6.69       0.02
C      -2.56      11.79       0.02
C       2.56       6.69       0.02
