23

Zn       6.53      10.99       1.88
O       4.53      11.71       2.28
H       4.04      12.58      -0.29
O       2.02      12.37      -0.38
H       1.24      12.51       0.19
C       7.99      13.46       3.07
C       7.63      11.60       4.71
C       6.85       9.54       4.59
C       6.04       8.06       2.73
C       5.67       8.32       0.56
C       5.93      10.22      -1.05
C       6.72      12.27      -0.93
C       3.37      11.51       1.47
C       7.65      13.71       0.90
C       3.20      12.60       0.41
N       7.08      10.68       3.85
N       6.12       8.96       1.70
N       6.43      11.15      -0.18
N       7.48      12.85       1.95
H       4.34      12.35       3.03
H       2.47      11.47       2.11
H       3.48      10.53       0.98
H       3.18      13.59       0.89
