23

Zn       3.84       7.92       8.73
Zn       5.03       4.95       9.21
Zn       3.17       6.47      11.41
Zn       1.98       5.26       8.65
O       3.50       6.15       9.50
O       5.50       7.88       7.72
O       5.44       4.13      10.98
O       3.09       8.35      11.90
O       6.51       5.96       8.44
O       3.92       9.37      10.04
O       4.78       5.80      12.37
O       1.51       5.59      11.93
O       1.57       6.29       7.00
O       0.50       5.16       9.92
O       2.23       8.37       7.65
O       4.64       3.42       8.07
O       2.37       3.46       7.98
C       6.49       7.07       7.80
C       5.41       4.74      12.09
C       3.51       9.36      11.25
C       0.52       5.23      11.20
C       1.60       7.56       6.91
C       3.51       2.93       7.75
