24

Zn      14.73       3.09      19.45
Zn      14.73       6.60      19.45
Zn      12.72       4.85      17.54
H      12.96       4.85      20.06
C       9.97       3.76      17.94
C      15.01       1.58      16.77
C      17.70       5.93      19.97
C      17.70       3.76      19.97
C      15.01       8.11      16.77
N      14.47       2.52      17.56
C      13.58       2.66      15.57
C       9.97       5.93      17.94
N      14.47       7.17      17.56
N      13.56       3.21      16.79
C      13.58       7.03      15.57
N      13.56       6.48      16.79
N      16.45       5.53      19.71
N      16.45       4.16      19.71
N      10.77       4.85      17.78
C      13.72       1.64      21.24
C      13.72       8.05      21.24
O      14.97       1.66      20.87
O      14.97       8.03      20.87
O      13.62       4.85      19.35
