18

Al       5.12      19.27      21.63
Al       8.48      19.19      21.62
O       2.28      20.42      23.00
O       2.29      20.44      20.28
O       5.67      18.00      20.26
O       5.67      18.05      23.00
O       4.56      20.48      20.24
O       4.54      20.48      22.98
O       7.93      17.99      22.98
H       3.44      17.44      21.60
H       6.84      20.84      21.03
O       7.94      17.95      20.26
C       3.41      20.82      19.80
O       6.81      20.06      21.60
C       3.42      20.85      23.45
C       6.81      17.62      23.46
O       3.44      18.41      21.62
C       6.81      17.59      19.79
