15

N       5.30       1.85      12.83
N       2.67       1.99      10.25
N       1.59       2.83      10.41
C       2.30       6.15      15.05
C       0.67       6.18      13.57
C       6.13       0.85      13.16
C       6.12       2.30      14.82
C       0.61       2.39       9.59
Cu       3.99       4.07      13.88
C       2.34       1.06       9.33
Cu       4.03       2.01      11.50
Cu       1.64       4.10      11.74
N       1.61       5.32      13.13
N       2.63       5.31      14.05
N       5.28       2.76      13.86
