23

Zn       2.61      14.23       5.09
O       0.55      11.81       1.71
Zn       2.28      12.52       2.35
O       5.37      12.47       5.82
Zn       0.84      11.53       5.01
O      -0.49      11.09       3.62
Zn       4.04      11.41       4.82
C       4.68      10.93       1.95
C       0.21      13.89       6.71
C       5.29      13.68       6.22
C      -0.40      11.27       2.36
C       2.44      15.47       2.42
C       2.44       9.39       6.21
O       2.40      14.39       1.74
O       2.48      15.61       3.69
O       1.30       9.83       5.86
O       3.59       9.90       5.97
O       2.44      12.44       4.31
O       1.25      14.59       6.45
O       3.64      11.46       1.44
O       5.00      10.94       3.18
O      -0.11      12.79       6.15
O       4.33      14.50       6.02
