13

N       9.65       9.12      23.15
C      10.46       8.22      23.81
C       7.73       5.91      22.39
N       7.65       9.28      20.54
C       6.95      10.81      24.69
C       6.23       6.60      23.80
N       6.63      10.17      23.51
Zn       7.78       8.89      22.49
N       7.19       7.03      22.90
C       7.21      10.42      19.98
C       8.07       8.49      19.49
C       5.34      10.45      23.28
C      10.31      10.29      23.19
