36

Zn      10.14       8.11       1.60
Zn      10.14       8.11      -1.60
Zn       7.52       6.11      -1.63
Zn       7.52       6.10       1.63
C       9.77       4.11       1.96
C       9.77       4.11      -1.96
C       5.49       8.26       1.11
C       5.49       8.25      -1.10
C       8.68      10.69      -1.10
C       8.68      10.69       1.10
C      11.52       5.45      -1.89
C      13.10       9.04       1.10
C      13.10       9.04      -1.10
C       6.25       3.34      -1.10
C       6.25       3.34       1.10
N       9.02       7.94       3.33
N       6.58       7.58      -0.68
N       8.98       9.44      -0.68
N       8.98       9.44       0.68
N      11.85       8.76       0.69
N      11.85       8.76      -0.68
N       9.02       7.94      -3.33
N       6.54       4.59      -0.69
N       6.54       4.59       0.69
N       9.36       5.32       1.53
N       9.36       5.32      -1.53
N      10.44       6.14      -1.49
N      10.44       6.14       1.49
C       8.99       8.83       4.37
C      11.52       5.45       1.89
N       7.91       7.19      -3.37
N       7.91       7.18       3.37
N       6.58       7.58       0.68
C       8.99       8.83      -4.37
C       7.17       7.58      -4.44
C       7.17       7.57       4.44
