15

N      11.44      -1.46      14.06
N      11.44      -2.35      15.10
Cu      11.43       1.40      17.40
Cu      11.41      -1.72      16.83
Cu      11.46       0.35      14.41
C      11.45       0.43      20.15
C      11.40      -1.75      19.77
C      11.51       3.25      13.90
C      11.46       3.96      15.99
C      11.47      -3.60      14.58
C      11.46      -2.16      12.91
N      11.39      -1.12      18.58
N      11.42       0.23      18.81
N      11.44       2.61      16.01
N      11.48       2.17      14.72
