20

Zn       9.45       6.61      11.53
O       9.15       4.57      11.19
O       9.41       6.78       9.49
Zn       6.44       6.35      11.59
O       7.18       6.42       9.68
O       9.30       6.63      13.54
O       6.03       8.33      11.64
O       7.04       6.64      13.54
C       7.15       8.95      11.72
C       8.07       3.93      11.36
C       8.24       6.64       9.03
C       8.16       6.71      14.11
C       3.74       5.68      13.08
C      12.27       7.91      10.79
C       3.40       6.41      10.89
C      12.47       6.31      12.46
N      11.69       7.01      11.66
N       4.20       5.88      11.82
O       8.28       8.39      11.59
O       6.95       4.43      11.70
