23

Zn      17.60       4.94      31.91
Zn      14.39       4.86      31.75
Zn      16.08       2.12      31.75
Zn      15.90       3.87      34.42
C      16.00       6.97      30.47
C      13.59       2.48      30.19
C      18.70       2.62      30.47
C      15.99       0.92      34.45
C      18.38       5.46      34.72
C      13.29       5.27      34.45
O      15.99       3.96      32.46
O      17.14       6.52      30.84
O      13.37       3.68      30.55
O      17.73       1.83      30.74
O      14.86       6.46      30.71
O      18.82       3.83      30.84
O      14.56       1.74      30.56
O      16.01       0.78      33.18
O      17.41       4.84      35.25
O      15.98       2.03      35.10
O      18.61       5.59      33.47
O      13.18       5.42      33.19
O      14.24       4.69      35.08
