11

Zn      10.36       2.53       4.38
C      12.75       4.00       4.13
C       7.98       1.58       5.53
O      11.76       3.79       4.95
C      12.80       0.80       4.34
N      11.47       0.88       4.10
O       8.96       2.40       5.76
N       9.25       3.11       2.81
C       7.92       3.36       2.86
C      11.15      -0.33       3.54
C       9.57       3.23       1.48
