11

Cd       1.71       4.14       4.14
C      -0.78       4.34       2.24
C       1.01       3.51       1.00
O       3.69       5.34       4.18
O      -0.27       4.18       5.34
C       4.20       2.24       4.34
C       2.42       1.00       3.51
C       3.12       6.48       4.04
C       0.30       4.04       6.48
N       0.51       3.96       2.17
N       2.91       2.17       3.96
