16

Ga       6.72       7.14       5.15
O       7.26       9.11       4.97
O       8.40       6.66       5.82
O       5.04       7.62       4.48
Ga      10.09       7.14       5.15
O       9.54       6.69       3.23
C       8.41       6.48       2.69
C       8.40       9.68       4.99
C       5.04       7.80       7.60
C       5.04       4.61       5.30
O       7.27       6.69       3.23
O       9.54       9.10       4.97
O      10.62       7.60       7.07
O       6.18       5.18       5.32
O       6.17       7.60       7.07
O      10.63       5.18       5.32
