24

Al      -2.15      -1.39      26.14
Al       1.04      -1.38      26.53
Al      -0.40       1.27      26.59
H      -4.08      -2.62      26.61
C      -0.07      -2.69      24.36
C       1.90       0.87      24.98
C      -2.15       1.11      24.46
C      -0.53      -3.01      28.11
C       1.45       0.50      28.64
C      -2.48       0.71      28.30
O      -2.54      -0.05      24.76
O      -1.25      -2.40      24.70
O       1.00      -2.52      25.06
O       2.15      -0.29      25.46
O       1.05       1.70      25.47
O      -1.47       1.90      25.21
O      -2.86      -0.29      27.63
O      -1.59      -2.66      27.54
O       0.67      -2.80      27.68
O       1.82      -0.59      28.09
O       0.80       1.44      28.09
O      -1.69       1.64      27.87
O      -0.48      -0.49      26.43
O      -3.67      -2.20      25.84
