18

C       2.02      -7.07      20.37
C       1.95      -7.89      23.86
Al       3.65      -9.05      21.75
H       5.33      -7.49      22.51
Al       0.34      -9.06      21.75
H       2.00     -10.59      20.89
C       5.29     -11.06      23.10
C       5.36     -10.13      19.58
O       0.83      -8.30      23.43
O       3.16      -7.57      20.63
O       4.24     -10.00      20.15
O       3.08      -8.10      23.32
O       4.15     -10.54      22.86
O       0.90      -7.48      20.83
O       2.00      -9.86      21.52
O      -0.25     -10.67      22.64
O      -0.16      -9.81      20.04
O       5.32      -8.28      21.95
