23

Zn      26.10       8.48      16.25
Zn      27.78       7.43      13.75
Zn      27.88       5.75      16.41
Zn      29.35       8.61      16.23
C      25.22       8.90      13.49
C      27.82       4.49      13.75
C      25.25       6.15      17.81
C      30.39       6.28      17.81
C      27.66      10.64      17.57
C      30.33       8.93      13.50
O      27.76       7.58      15.70
O      24.98       9.07      14.74
O      27.75       5.59      13.10
O      26.26       5.45      17.49
O      26.22       8.31      13.00
O      25.00       7.35      17.43
O      27.90       4.35      15.02
O      29.46       5.44      17.52
O      28.82      10.21      17.26
O      30.46       7.49      17.40
O      26.54      10.12      17.27
O      29.41       8.20      13.02
O      30.47       9.24      14.74
