18

Al       6.69      11.94      25.29
Al      10.03      11.90      25.31
O       6.19      10.81      23.85
O       7.27      13.20      24.00
O       7.20      13.11      26.76
H       8.34      10.23      25.74
H       5.01      13.55      25.90
O       6.13      10.59      26.57
O       8.36      11.10      25.33
O       5.02      12.75      25.35
O       3.95      10.58      24.07
O       9.46      13.19      26.66
O       9.53      13.06      23.87
O       3.87      10.73      26.78
C       5.08      10.26      23.56
C       5.03      10.32      27.15
C       8.34      13.46      27.20
C       8.39      13.47      23.46
