14

C      20.68      16.72       1.59
Cd      21.98      15.29      -1.12
N      23.53      18.20      -0.02
O      21.97      15.80      -3.35
N      22.51      17.31       0.08
C      20.87      16.46      -3.36
C      19.49      14.80       1.01
C      21.83      17.53       1.20
C      23.95      13.89       0.34
N      20.00      12.52      -1.74
N      20.32      13.60      -0.97
C      19.42      13.73       0.00
N      20.46      15.68       0.77
O      24.00      14.37      -0.86
