20

Zn       8.83       7.59       9.62
Zn       8.68      10.44       9.54
O       9.12      10.05       7.62
O       8.79       7.81       7.64
O       8.20      10.08      11.49
O      10.91       8.10       9.47
O       6.65       9.98       9.11
O       6.74       7.86       9.89
O      10.70      10.24      10.15
C       8.58       9.05      12.12
C       9.25       4.89       8.61
C       9.81      13.13       9.36
C       8.44       4.94      10.80
C       7.53      13.15       9.87
C       9.01       8.92       7.05
C      11.40       9.17       9.97
C       6.10       8.95       9.68
N       8.86       5.57       9.69
N       8.66      12.48       9.58
O       9.00       7.96      11.59
