12

C       6.09       9.89      26.01
N       7.41      10.89      22.60
O       5.47      10.86      25.40
Zn       5.59      10.77      23.45
C       4.17      13.31      23.99
N       4.57      12.43      23.00
C       7.74      11.79      21.67
N       4.69       9.12      22.68
C       3.97      12.84      21.87
C       8.53      10.11      22.81
C       4.16       8.94      21.47
C       4.61       7.91      23.34
