11

Zn       3.71       4.53      16.01
O       2.65       5.76      17.15
O       2.69       4.17      14.36
C       3.14       2.45      17.96
C       3.46       3.38      13.66
C       5.41       2.51      17.45
C       1.48       5.49      17.62
C       6.38       5.46      15.03
C       5.06       7.14      15.92
N       4.16       3.00      17.27
N       5.23       5.84      15.61
