38

Zn       9.92      13.33       9.71
Zn       5.90      15.91      11.64
Zn      10.00      15.70      11.93
Zn       5.82      13.11      10.00
Zn       7.91      13.44      12.26
Zn      12.01      15.58       9.38
C       9.12      18.37      10.96
C      10.67      18.54      12.68
C       6.81      10.77      11.59
C       6.70      13.28       7.16
C       5.15      11.58       7.49
C       9.01      14.85      14.62
C      10.79      10.65      10.68
C       9.25      10.48       8.96
C      13.11      18.25      10.05
C       5.02      15.74      14.48
C       6.57      17.44      14.15
C      10.91      14.18       7.02
N       9.92      17.78      11.86
N       5.90      12.58       7.99
N      10.00      11.25       9.78
N       5.82      16.44      13.65
O       7.61      11.43      12.32
O       5.95      11.22      10.76
O       8.20      13.96      14.20
O       9.86      15.51      13.96
O      12.30      17.60       9.32
O       5.77      17.81      10.88
O      11.71      15.07       7.44
O      10.05      13.51       7.68
F       9.90      13.57      11.81
F       7.90      13.28      10.06
F       5.91      13.83      12.00
F       7.92      15.59      11.78
F      10.01      15.45       9.83
F      12.02      15.74      11.58
F       5.81      15.19       9.64
F      12.00      13.43       9.86
