20

Zn       6.66       8.22      13.99
N       4.50       8.26      13.90
O       6.95       6.21      13.65
O       9.24      10.10      13.45
O       7.06      10.25      14.09
O       9.07       6.21      14.48
O       7.11       8.50      12.00
Zn       9.57       8.15      13.99
O       7.04       7.93      15.96
N      11.75       8.15      13.99
O       9.22       8.56      15.95
O       9.25       7.74      11.99
C       8.06       5.65      13.95
C       8.15      10.73      13.64
C       8.19       8.18      11.42
C       8.14       8.19      16.53
C       3.79       7.31      13.25
C      12.43       8.91      14.88
C       3.82       9.24      14.55
C      12.45       7.44      13.07
