23

Zn      16.11      16.31      22.31
Zn      17.63      15.42      24.95
Zn      15.79      18.07      24.96
Zn      14.39      15.25      24.84
C      13.21      17.56      26.26
C      18.71      14.92      22.26
C      18.28      17.78      26.59
O      15.99      16.26      24.28
C      16.04      19.26      22.32
C      13.60      14.75      22.04
O      15.99      19.43      23.59
O      18.70      16.76      25.97
O      16.06      18.15      21.69
O      17.07      18.22      26.52
O      14.14      18.40      25.97
O      13.36      14.60      23.29
O      18.84      14.82      23.54
O      14.59      15.36      21.52
O      17.20      13.91      26.12
O      17.73      15.45      21.64
O      13.15      16.34      25.89
O      14.93      13.69      25.89
C      16.08      13.32      26.32
