35

Zn       2.05       2.93       8.88
Zn       4.33       7.45       9.15
Zn       1.81       5.91       7.35
Zn       4.15       4.77      11.17
N       1.88       3.18       6.57
N       5.85       5.99       9.37
N       3.82       5.93       6.98
N       4.16       1.49      10.10
N       4.53       7.10       7.15
N       3.70       1.95       8.90
N       5.61       4.77       9.95
N       1.33       4.38       6.18
N       1.93       3.11      11.08
N       2.45       8.24       8.78
N       0.36       5.16       8.72
N       3.72       6.62      11.71
N       4.19       7.79      11.17
N       0.29       3.79       8.78
N       2.92       3.53      11.91
N       1.64       7.84       7.75
C       1.14       2.21       5.98
C       6.96       5.87       8.64
C       4.32       5.30       5.89
C       5.46       7.17       6.19
C       4.45       1.46       7.87
C       6.57       3.89       9.57
C       0.27       4.14       5.39
C       1.21       2.20      11.76
C       2.37       9.58       8.87
C      -0.89       5.60       8.42
C       3.14       6.88      12.89
C       3.88       8.78      12.04
C      -0.95       3.39       8.51
C       2.82       2.90      13.10
C       1.05       8.92       7.20
