54

Zr      14.69      14.71      18.14
Zr      17.58      13.96      16.25
Zr      15.88      17.98      18.68
Zr      15.58      16.73      15.38
Zr      17.91      15.20      19.53
Zr      18.77      17.25      16.79
H      14.88      13.96      15.42
H      15.44      15.92      20.61
H      16.73      19.18      16.31
H      19.96      14.85      17.57
O      13.82      17.75      19.79
O      16.19      11.95      16.35
O      12.79      14.89      16.69
O      14.85      13.44      20.12
O      16.95      13.82      20.88
O      13.59      16.11      14.94
O      14.43      12.69      17.58
O      13.17      15.61      19.36
O      16.73      14.28      18.10
O      15.05      16.59      17.39
O      15.40      14.55      15.99
O      15.78      15.95      19.71
O      19.57      14.23      15.05
O      17.24      19.92      18.67
O      15.89      15.37      13.42
O      19.12      13.19      19.38
O      17.72      16.59      21.46
O      14.27      18.66      15.56
O      18.65      18.44      14.76
O      20.64      17.19      18.27
O      16.56      18.02      13.97
O      19.87      15.91      19.99
O      17.07      13.60      14.21
O      14.53      19.34      17.71
O      16.48      18.34      20.70
O      18.82      12.51      17.23
O      20.23      16.36      15.49
O      19.07      19.24      17.51
O      17.72      17.02      18.56
O      17.45      15.98      15.81
O      16.74      18.26      16.61
O      19.03      15.14      17.55
C      13.07      16.74      19.98
C      15.06      11.78      16.91
C      12.69      15.39      15.53
C      15.83      13.19      20.88
C      20.30      15.25      14.84
C      18.43      20.07      18.25
C      16.41      14.22      13.30
C      19.39      12.45      18.38
C      17.21      17.74      21.58
C      13.96      19.38      16.56
C      17.68      18.65      13.97
C      20.73      16.69      19.44
