23

Zn       7.57       9.00      15.57
Zn       7.41      10.80      18.26
Zn       9.04      11.86      15.69
Zn       5.87      11.76      15.64
O       7.48      10.83      16.29
O       7.55       7.66      17.02
O       8.94      11.74      19.07
O      10.26      10.77      14.62
O       7.43       8.96      18.91
O       9.23       8.72      14.55
O      10.03      12.54      17.25
O       8.58      13.44      14.62
C       7.48       7.84      18.29
O       4.87      10.54      14.47
O       6.05       8.61      14.36
C      10.18       9.54      14.28
C       5.07       9.36      14.05
O       5.78      11.65      18.94
O       6.29      13.37      14.60
O       4.66      12.32      17.06
C       9.88      12.38      18.50
C       4.79      12.19      18.33
C       7.42      13.88      14.29
