18

C       3.11      14.85      21.33
Al       1.45      13.45      19.35
O       3.12      12.63      19.26
Al       4.78      13.44      19.37
O       6.45      14.26      19.46
C       6.45      12.04      17.39
O       4.25      14.53      20.86
H       3.12      11.84      18.70
O       0.92      12.36      17.85
H       6.45      15.05      20.01
O       1.97      14.81      18.08
C       3.12      15.22      17.70
O       5.31      12.08      20.63
C       6.46      11.67      21.01
O       1.98      14.54      20.84
O       5.31      12.35      17.87
O       0.91      12.06      20.57
O       4.25      14.83      18.15
