18

Al       6.55       5.95       7.46
Al       3.19       5.95       7.46
H       4.87       7.22       6.23
H       8.22       4.68       8.69
O       7.13       5.76       5.63
O       9.31       7.75       7.24
O       3.71       6.39       9.26
O       6.04       4.10       7.48
O       5.96       6.14       9.29
O       3.79       4.15       7.69
O       9.38       5.51       5.66
O       7.06       7.80       7.44
C       8.24       5.57       5.05
C       8.20       8.36       7.37
C       4.86       6.33       9.88
C       4.90       3.54       7.55
O       4.87       6.44       6.80
O       8.23       5.46       8.12
