18

Al       6.43       6.50       8.64
Al       2.98       6.47       8.63
H       4.71       7.34       7.09
H       8.13       5.08       9.68
O       6.98       6.23       6.79
O       9.32       8.31       8.75
O       3.62       6.60      10.40
O       5.82       4.69       8.73
O       5.88       6.81      10.45
O       3.55       4.64       8.54
C       8.14       6.20       6.25
C       8.17       8.90       8.66
C       4.73       6.81      11.00
C       4.69       4.09       8.62
O       9.25       6.40       6.84
O       7.06       8.30       8.55
O       4.70       7.05       8.02
O       8.15       5.93       9.23
