15

C       8.19       0.56      18.80
N       8.38       2.19      17.32
N       8.92       1.64      18.45
Cu      10.44       2.40      19.19
Cu       9.15       3.70      16.60
N      11.03       5.75      16.39
N       9.90       5.21      15.84
Cu      11.76       4.98      17.90
N      11.95       3.11      19.96
N      12.51       4.24      19.42
C       7.32       1.45      16.95
C      13.58       4.58      20.16
C      12.68       2.74      21.03
C       9.55       5.94      14.77
C      11.40       6.81      15.65
