10

Al       0.87      13.17       7.92
O      -0.13      14.15       9.27
O      -0.13      13.84       6.39
O      -0.17      11.61       8.04
O       1.91      14.72       8.01
O       1.87      12.20       9.29
O       1.87      12.47       6.41
C      -1.04      13.16       5.80
C      -0.99      11.37       9.01
C      -1.08      14.97       8.99
