54

Zr      12.79      12.68      16.08
Zr      15.68      11.92      14.18
Zr      14.01      15.95      16.64
Zr      13.69      14.71      13.33
Zr      16.02      13.16      17.48
O      15.19      11.62      12.10
O      16.92      10.45      15.22
O      15.56      13.95      13.76
Zr      16.90      15.21      14.73
O      17.14      13.09      15.49
O      12.68      17.36      15.63
O      14.59      16.28      18.70
O      15.84      14.98      16.50
O      14.86      16.23      14.56
O      17.19      17.23      15.43
H      12.98      11.97      13.34
H      13.52      13.90      18.55
H      14.87      17.15      14.24
H      18.05      12.77      15.53
O      18.37      14.27      13.43
C      11.18      14.80      17.85
C      13.24       9.78      14.81
C      10.77      13.42      13.57
C      13.86      11.21      18.83
C      18.44      13.13      12.85
C      16.52      18.05      16.16
C      14.54      12.31      11.22
C      17.42      10.39      16.40
C      15.31      15.64      19.54
C      12.16      17.40      14.46
C      15.89      16.56      11.91
C      18.87      14.60      17.31
O      11.98      15.77      17.71
O      14.39      10.00      14.30
O      10.93      12.85      14.70
O      12.92      11.40      18.00
O      15.01      11.79      18.84
O      11.65      14.11      12.93
O      12.53      10.62      15.47
O      11.26      13.65      17.29
O      14.83      12.26      16.04
O      13.17      14.57      15.34
O      13.51      12.53      13.93
O      13.88      13.91      17.65
O      17.65      12.15      13.00
O      15.36      17.84      16.65
O      13.96      13.42      11.41
O      17.19      11.18      17.36
O      15.87      14.51      19.36
O      12.40      16.62      13.49
O      16.82      16.38      12.76
O      18.71      15.15      16.18
O      14.74      16.00      11.91
O      18.03      13.84      17.91
