13

Cu       7.53      -1.50       4.51
Cu       8.39      -1.57       2.16
C       7.25      -3.97       6.15
C       5.27      -2.90       5.60
C       7.17       1.32       5.35
C       8.64      -1.59      -0.76
C      10.64      -1.89       0.37
I       6.00      -0.85       2.36
I       9.97      -2.40       3.98
N       7.78       0.14       5.61
N       6.61      -2.96       5.51
N       9.31      -1.69       0.41
C       8.51       0.03       6.74
