24

O       7.57       1.71      27.10
O       7.70       5.98      27.20
Al       8.28       2.79      28.62
Al       6.55       5.49      28.58
Al       5.08       2.88      28.59
O       4.11       3.79      27.24
O       8.80       3.96      30.11
O       5.26       5.84      29.92
O       5.24       1.63      29.95
O       7.52       1.61      29.99
O       7.78       5.98      29.88
O       4.10       3.88      29.87
O       6.62       3.73      28.59
O       8.90       4.04      27.18
O       5.18       5.80      27.28
O       5.31       1.56      27.30
O       9.81       1.94      28.66
H      10.28       1.90      27.82
C       6.43       1.40      26.68
C       6.39       1.37      30.49
C       8.47       5.11      30.53
C       4.44       4.99      30.41
C       8.49       5.12      26.66
C       4.42       4.93      26.74
