23

Zn      18.38       7.27       8.86
Zn      16.88       4.41       8.68
Zn      18.61       5.48       6.21
Zn      20.09       4.56       8.87
O      18.48       5.43       8.16
O      16.71       7.56       9.87
O      15.87       3.77       7.13
O      18.56       7.32       5.51
O      15.67       5.52       9.76
O      18.39       8.60       7.40
O      17.09       4.54       5.36
O      20.23       4.63       5.51
O      21.09       5.75      10.05
C      15.76       6.74      10.13
O      19.88       7.68      10.04
C      18.48       8.43       6.13
C      16.07       3.91       5.88
C      20.87       6.96      10.41
C      21.19       4.09       6.16
O      21.29       3.98       7.43
O      17.34       2.83       9.76
C      18.49       2.41      10.14
O      19.62       2.94       9.88
