33

O       2.96       8.85      11.95
O       0.44       4.31      11.95
Cu       1.70       6.58      10.55
H       0.74       7.85      15.59
H       2.66       5.30      15.59
H       1.68       8.93      17.62
H       1.72       4.23      17.62
H       4.10       9.49      17.72
H      -0.70       3.67      17.72
H       5.57       9.01      15.78
H      -2.17       4.15      15.78
H       4.63       7.98      13.72
H      -1.23       5.17      13.72
H       3.04       8.90      10.95
H       0.36       4.26      10.95
C       2.10       7.21      13.31
C       1.30       5.95      13.31
C       2.62       7.84      14.53
C       0.78       5.32      14.53
C       1.80       8.10      15.63
C       1.60       5.06      15.63
C       2.33       8.69      16.78
C       1.07       4.46      16.78
C       3.69       9.01      16.83
C      -0.29       4.15      16.83
C       4.52       8.74      15.74
C      -1.12       4.41      15.74
C       3.99       8.17      14.59
C      -0.59       4.99      14.59
N       2.31       7.67      12.11
N       1.09       5.49      12.11
Cl       2.59       8.06       9.10
Cl       0.81       5.09       9.10
