23

Zn      22.40       7.84       0.54
Zn      23.94      10.69       0.73
Zn      25.60       7.91       0.68
Zn      24.16       8.94      -1.95
C      21.32      10.18       2.01
C      26.43      10.31       2.25
C      23.99       5.81       1.99
C      26.73       7.51      -2.01
C      21.64       7.36      -2.27
C      24.03      11.88      -1.98
O      24.01       8.85       0.01
O      21.21       8.96       1.63
O      25.46      11.07       1.92
O      25.14       6.32       1.71
O      22.28      10.98       1.75
O      22.85       6.26       1.62
O      26.61       9.11       1.86
O      26.81       7.35      -0.74
O      22.64       7.98      -2.75
O      25.79       8.10      -2.64
O      21.38       7.20      -1.02
O      23.96      12.03      -0.71
O      24.12      10.77      -2.61
