23

Zn       7.61       3.83       8.19
Zn       8.93       6.72       8.56
Zn       9.46       5.08       5.86
Zn      10.78       4.11       8.62
C       6.35       5.99       9.77
C       9.17       8.02       5.92
C       6.99       3.52       5.32
C      12.00       3.60       5.97
C       9.22       1.93       9.80
C      11.46       6.57      10.08
O       9.19       4.93       7.80
O       6.30       4.82       9.27
O       8.95       8.12       7.18
O       7.98       4.19       4.90
O       7.26       6.86       9.57
O       6.74       3.22       6.54
O       9.39       6.95       5.25
O      11.18       4.32       5.29
O      10.32       2.57       9.76
O      11.92       3.36       7.21
O       8.11       2.25       9.26
O      10.36       7.15       9.82
O      11.82       5.41       9.67
