16

Ti       2.00       0.00       7.61
Ti       5.38       0.00       7.33
C       0.12       1.96       9.04
O       2.40       1.64       6.44
O       3.60      -0.01       8.26
C       3.57      -1.94       5.87
O       4.74      -1.60       6.25
C       0.18      -1.95       9.06
O       2.50      -1.28       6.10
C       3.51       1.97       5.91
O       4.59       1.28       5.98
O       0.21      -0.00       6.68
O       1.20       1.27       8.97
O       5.89      -1.29       8.84
O       5.78       1.63       8.52
O       1.35      -1.61       8.68
