20

N       4.87      11.82      16.20
N       4.87      11.82      23.09
Zn       4.87      11.82      21.04
Zn       4.87      11.82      18.25
C       4.72      14.44      19.60
O       4.79      13.86      20.73
O       4.74      13.87      18.46
O       4.96       9.78      20.73
O       5.00       9.77      18.46
O       2.84      11.72      18.57
O       2.82      11.76      20.84
O       6.91      11.92      18.56
O       6.92      11.88      20.83
C       4.32      12.84      15.52
C       5.02       9.20      19.60
C       5.42      10.80      15.52
C       2.25      11.73      19.70
C       7.49      11.91      19.69
C       3.81      12.28      23.77
C       5.94      11.37      23.77
