11

Zn       2.90       4.03      17.52
C       2.12       1.46      19.00
N       1.96       2.80      18.94
C       1.15       3.39      19.83
N       3.85       5.26      18.94
C       3.68       6.59      19.00
C       4.66       4.66      19.83
O       1.39       5.22      17.00
O       4.42       2.84      17.00
C       1.89       6.08      16.16
C       3.92       1.98      16.16
