23

Zn       1.71       6.18       6.88
O       0.08       5.28       7.51
Zn       0.02       5.31       9.47
Zn       0.12       3.44       6.83
Zn      -1.53       6.20       6.84
O      -1.51       3.05       5.82
O       1.27       7.75       5.78
O       2.87       6.66       8.39
O      -1.01       7.77       5.77
O       0.04       3.49      10.20
O      -2.65       6.95       8.27
O       1.70       3.05       5.74
O      -1.61       6.18      10.14
O       2.79       5.06       5.69
O       0.06       2.16       8.34
O      -2.60       5.04       5.68
O       1.48       6.42      10.19
C      -2.49       3.78       5.48
C       2.56       6.81       9.62
C       0.14       8.19       5.42
C       0.06       2.37       9.60
C      -2.50       6.86       9.54
C       2.65       3.83       5.38
