9

N      -7.07      13.89       8.88
C      -5.80      16.64      10.43
Zn      -5.03      14.28       8.64
I      -4.63      14.97       6.22
I      -3.61      12.47       9.78
C      -3.55      16.10      10.44
C      -7.89      14.19       7.85
N      -4.79      15.88       9.97
C      -7.59      13.34       9.99
