23

Zn       5.23      10.23      15.22
Zn       5.22       7.05      15.19
C       4.06      11.16      12.66
Zn       2.90       8.68      16.78
Zn       2.90       8.62      13.63
C       4.08      11.21      17.76
C       4.08       6.08      12.64
C       4.07       6.14      17.77
C       7.71       8.63      15.23
C       0.42       8.64      15.21
O       3.22      10.22      12.53
O       4.89      11.31      13.62
O       3.22      10.28      17.87
O       4.93      11.34      16.82
O       7.13       9.76      15.28
O       3.23       7.03      12.51
O       4.90       5.93      13.61
O       3.25       7.12      17.92
O       4.86       5.96      16.79
O       7.13       7.49      15.16
O       4.07       8.64      15.20
O       0.99       8.77      16.35
O       1.00       8.50      14.09
