18

Al      -0.78      10.19      11.61
Al       2.53      10.18      11.66
O       2.05      11.86      12.49
O      -0.33       8.84      12.90
O      -1.41       8.86      10.40
O      -0.17      11.58      12.79
O      -1.26      11.55      10.30
O       1.90       9.23      13.21
O       0.89      10.06      10.82
O      -3.49      11.15      10.06
O      -3.58       8.50      10.91
O      -2.43      10.37      12.45
H       0.91       9.95       9.86
H      -2.40      11.01      13.17
C       0.79       8.67      13.49
C       0.92      12.23      12.92
C      -2.40      11.73       9.77
C      -2.48       8.18      10.35
