23

Zn       9.06       8.76       8.51
Zn       7.04       9.03      10.95
Zn       9.07       6.62      10.96
Zn       6.71       6.63       8.78
C       4.41       8.00      10.05
C      11.53       7.59       9.65
C       8.24      11.37       9.58
C       7.69       4.16      10.07
C       8.26       7.99      13.44
C       7.74       7.51       6.17
O       7.97       7.75       9.80
O       7.52       8.85      12.85
O       6.92       6.79       6.84
O       8.91       7.04      12.87
O       8.58       8.34       6.66
O       8.89      10.70       8.71
O       6.97       4.71       9.18
O       5.10       8.80      10.77
O      10.97       6.82      10.49
O       4.87       7.12       9.25
O      10.96       8.29       8.75
O       7.55      10.88      10.54
O       8.52       4.74      10.85
