16

Cu       5.03       6.53       6.53
C       6.19       3.80       6.53
Si       0.98       6.53       6.53
C       6.19       9.25       6.53
C       3.86       9.26       6.53
N       5.03       6.53       4.49
N       5.02       6.53       8.58
N       5.03       4.48       6.53
N       5.02       8.58       6.53
F       2.72       6.54       6.55
F       7.33       6.52       6.52
C       3.86       6.53       3.81
C       6.19       6.53       3.80
C       6.19       6.53       9.25
C       3.86       6.53       9.27
C       3.86       3.81       6.53
