23

Zn      -4.50       4.66       6.90
Zn      -6.23       1.93       6.95
Zn      -4.58       2.84       9.51
Zn      -3.05       1.80       6.91
O      -4.60       2.82       7.55
O      -3.66       0.50       5.58
O      -6.15       5.05       5.90
O      -4.44       5.97       8.37
O      -7.39       3.13       5.90
O      -2.89       2.12      10.16
O      -7.39       1.47       8.48
O      -1.73       2.98       6.05
O      -5.98       1.67      10.25
O      -2.93       4.89       5.76
O      -2.08       0.95       8.38
O      -5.87       0.22       6.06
O      -4.76       4.65      10.20
C      -4.76      -0.15       5.49
C      -4.59       5.78       9.62
C      -7.19       4.37       5.65
C      -2.09       1.29       9.62
C      -7.03       1.24       9.69
C      -1.89       4.16       5.60
