23

Zn       1.10       0.50       0.65
Zn      -2.01       0.60       0.72
Zn      -0.50      -2.27       0.58
Zn      -0.49      -0.21      -1.98
C      -0.38       2.74       1.74
C       1.70      -1.71       2.47
C       2.29       0.76      -1.97
C      -3.18      -1.91       1.77
C      -2.75       1.61      -1.99
C      -0.15      -3.16      -2.21
O      -0.51      -0.42      -0.03
O      -1.45       2.06       1.93
O       0.66       2.36       1.11
O       1.01      -2.59       1.86
O       1.71      -0.45       2.24
O       1.19       0.66      -2.61
O       2.48       0.54      -0.73
O      -2.18      -2.67       1.57
O      -3.26      -0.66       1.52
O      -1.98       0.86      -2.68
O      -2.84       1.65      -0.72
O      -0.27      -3.48      -0.98
O      -0.38      -2.02      -2.74
