44

Er       6.73       0.03      24.89
Er      10.77      -0.04      24.89
Er       4.01      -3.89      24.89
Er      13.48       3.89      24.89
O       4.37      -2.27      26.34
O      13.12       2.27      26.34
O      13.11       2.27      23.44
O       4.38      -2.27      23.44
O       5.00      -0.12      26.37
O      12.50       0.12      26.37
O      12.50       0.12      23.42
O       5.00      -0.12      23.42
C       8.62       1.80      23.01
O       7.45       1.60      23.46
C       8.87      -1.80      23.01
O      10.04      -1.60      23.46
C       8.87      -1.80      26.78
O       7.45       1.60      26.33
C       8.62       1.80      26.78
O      10.04      -1.60      26.33
O       9.68       1.27      23.50
O       7.82      -1.27      23.50
O       7.82      -1.27      26.29
O       9.68       1.27      26.29
O       2.53      -4.80      23.41
O      14.97       4.79      23.41
O      14.97       4.81      26.36
O       2.53      -4.80      26.36
O       4.68      -5.40      23.30
O      12.82       5.40      23.30
O      12.82       5.39      26.50
O       4.68      -5.39      26.50
C       3.46      -5.53      22.91
C      14.04       5.53      22.91
C      14.04       5.53      26.87
C       3.46      -5.53      26.87
C       4.30      -1.08      26.81
C      13.20       1.08      26.81
C       3.11      -6.56      21.89
C      14.39       6.56      21.89
C      13.19       1.08      22.98
C       4.30      -1.08      22.98
C      14.39       6.56      27.90
C       3.10      -6.56      27.90
