54

Zr      13.80      17.83      17.32
Zr      13.07      15.56      19.96
Zr      17.02      18.39      18.70
Zr      15.97      15.11      17.98
Zr      14.08      18.88      20.64
O      14.09      16.81      21.58
Zr      16.23      16.16      21.35
O      17.36      16.26      19.38
H      13.25      15.02      17.17
H      14.88      20.24      18.29
H      18.29      15.95      19.41
H      13.70      16.75      22.47
C      15.99      19.72      15.87
C      10.96      16.35      17.56
C      14.69      15.64      15.07
C      12.22      20.43      18.54
C      14.11      14.18      22.76
C      19.05      17.69      21.16
C      13.80      12.76      18.57
C      11.26      17.46      21.76
C      16.34      21.18      20.21
C      18.71      16.39      16.79
C      17.64      13.41      20.15
C      15.44      18.58      23.52
O      16.92      19.53      16.72
O      11.22      15.71      18.62
O      14.06      16.69      15.37
O      12.46      19.65      17.57
O      12.72      20.33      19.71
O      15.40      14.92      15.85
O      11.76      17.12      16.92
O      14.80      19.27      15.99
O      13.29      17.53      19.30
O      15.73      17.14      17.67
O      13.75      15.58      17.79
O      14.93      19.32      18.59
O      13.18      14.32      21.92
O      18.85      18.37      20.11
O      14.85      13.14      17.99
O      11.99      18.49      21.72
O      15.24      20.86      20.72
O      17.86      15.46      16.83
O      17.41      14.16      21.15
O      16.03      17.48      23.31
O      17.28      13.69      18.95
O      14.74      19.19      22.64
O      13.01      13.47      19.28
O      18.63      17.50      17.41
O      17.14      20.44      19.55
O      11.50      16.33      21.21
O      15.29      14.65      22.61
O      18.22      16.95      21.78
O      15.95      18.01      20.44
O      15.11      15.28      19.87
