14

Zn      14.47       7.52       0.22
O      13.80       8.82      -1.28
C      16.83       8.32       2.09
O      13.06       8.08       1.46
C      16.49       7.28      -1.53
O      15.94       7.50       1.72
O      14.93      10.76      -1.41
Zn      15.84       9.86       0.08
O      14.19      10.04       1.31
O      17.03       9.50       1.61
C      14.01       9.95      -1.80
O      15.50       6.55      -1.13
C      13.20       9.33       1.70
O      16.79       8.40      -1.03
