24

C      13.33       3.04       2.19
C      17.23       3.21       2.01
C      15.66      -0.56       2.08
Al      13.62       0.75       0.28
Al      15.12       3.57       0.15
C      13.03       3.07      -1.60
Al      16.79       1.06       0.17
C      15.50      -0.50      -1.75
C      17.13       3.07      -1.78
O      17.66       2.13       1.49
O      16.77      -0.24       1.48
O      14.35      -0.27      -1.28
O      12.80       1.95      -1.08
O      13.85       3.97      -1.15
O      16.37       3.92      -1.21
O      17.66       2.06      -1.19
O      16.63      -0.24      -1.18
O      15.20       1.81       0.17
H      11.60      -0.26      -0.37
O      14.52      -0.31       1.61
O      13.04       1.89       1.76
O      13.91       3.97       1.50
O      16.42       4.03       1.46
O      12.21      -0.30       0.38
