20

Zn      26.70      13.25      21.44
C      27.26      16.05      22.26
Zn      25.93      10.62      21.95
C      25.36       7.81      21.13
N      27.50      15.14      21.30
N      25.13       8.73      22.09
O      28.41      12.48      22.32
O      24.22      11.38      21.06
O      27.79      10.34      22.75
O      24.83      13.52      20.63
O      25.27      11.35      23.77
O      27.36      12.51      19.61
O      25.86      13.49      23.32
O      26.76      10.37      20.06
C      28.62      11.31      22.77
C      24.00      12.55      20.62
C      25.36      12.59      24.07
C      27.27      11.28      19.32
C      28.36      15.43      20.31
C      24.27       8.43      23.08
