23

Zn      16.19      16.40      22.45
Zn      17.78      15.53      25.10
Zn      15.99      18.23      25.08
Zn      14.58      15.35      25.00
C      18.82      15.05      22.38
C      18.51      17.94      26.64
C      16.11      19.36      22.37
C      13.41      17.67      26.39
C      13.72      14.83      22.21
C      16.24      13.37      26.41
O      16.14      16.38      24.41
O      17.83      15.56      21.77
O      18.78      16.75      26.27
O      16.03      19.56      23.63
O      18.98      14.95      23.64
O      16.18      18.24      21.77
O      17.50      18.62      26.28
O      14.33      18.51      26.10
O      13.56      14.68      23.46
O      13.36      16.45      26.07
O      14.67      15.46      21.64
O      17.35      13.91      26.13
O      15.07      13.78      26.07
