20

Zn       5.47       8.51       9.00
Zn       8.39       8.82       8.90
C       7.19       6.05       9.02
C       6.80       8.73       6.35
C       6.65      11.26       8.94
C       6.99       8.59      11.56
C      11.19       8.13       8.06
C      11.09       9.67       9.83
C       2.66       9.17       9.86
C       2.78       7.68       8.05
N      10.46       8.91       8.90
N       3.40       8.38       9.03
O       6.05       6.55       8.70
O       8.21       6.80       9.26
O       7.93       8.47       6.90
O       5.71       8.89       6.97
O       7.77      10.74       8.61
O       5.64      10.54       9.29
O       5.91       8.20      11.01
O       7.99       9.08      10.95
