13

N       5.58      17.72      11.21
C       5.78      17.47       6.98
C       5.12      15.10      12.56
C       4.76      15.23       6.96
C       5.42      17.55      12.57
N       5.72      17.69       8.34
Pt       5.26      16.34       9.77
C       4.30      13.72       8.53
N       4.81      15.00       8.33
C       6.23      18.96       8.56
N       4.94      14.95      11.20
C       5.90      19.05      11.00
C       4.62      13.62      10.99
