9

Zn       9.60       4.20      23.93
N       9.78       5.63      22.41
C      10.31       5.32      21.22
C       6.72       4.28      24.76
C       9.39       6.90      22.64
N       7.53       3.85      23.77
C       6.99       3.25      22.69
I      10.89       2.17      23.03
I      10.04       5.26      26.20
