18

Zn       8.67       7.94      14.04
O       8.44       7.98      11.99
O       8.29       5.93      14.05
O       6.17       7.88      12.02
O       8.47       8.00      16.10
Zn       5.86       7.90      14.04
O       6.21       7.81      16.04
N       3.83       7.99      14.06
N      10.70       7.86      14.02
C       7.17       5.32      14.01
C       2.67       7.99      14.06
C      11.86       7.87      14.03
O       8.41       9.97      14.04
C       7.29       7.96      11.43
C       7.32       7.92      16.64
O       6.01       5.83      14.00
O       6.13       9.94      14.08
C       7.26      10.52      14.07
