11

Cu       4.69      10.81       6.78
N       4.23      10.01       8.56
N       5.15      11.60       5.01
C       4.03       8.74       8.77
C       5.35      12.87       4.79
C       4.16      10.85       9.78
C       5.22      10.76       3.79
O       4.48       9.08       5.91
C       4.33       7.90       6.44
O       4.90      12.53       7.66
C       5.05      13.72       7.13
