9

Ga       1.61       1.94       7.31
O       2.83       0.89       8.29
P       2.89       1.92       4.60
O      -0.13       1.58       7.92
P       1.61       4.83       7.07
P      -0.78       0.14       8.04
P       3.72      -0.29       7.78
O       2.17       3.61       7.93
O       1.68       1.41       5.52
