23

Zn      22.77      18.50      16.93
Zn      21.25      19.53      14.19
Zn      19.66      18.39      16.68
Zn      21.25      21.29      16.77
C      23.80      18.11      14.23
C      18.89      17.99      13.99
C      21.20      16.42      18.17
C      18.66      20.75      18.05
C      23.59      20.85      18.33
C      21.28      22.43      14.12
O      21.24      19.43      16.15
O      24.08      18.23      15.47
O      19.39      19.11      13.65
O      20.14      17.12      18.11
O      22.67      18.28      13.67
O      22.34      16.72      17.67
O      19.16      17.37      15.07
O      18.37      19.66      17.45
O      23.09      21.60      17.42
O      19.78      21.34      18.10
O      23.33      19.61      18.48
O      21.70      21.35      13.60
O      20.93      22.61      15.34
