20

Zn       6.58       6.15       7.21
Zn       3.86       6.25       7.36
C       5.18       8.78       7.42
C      10.85       6.02       6.23
C       5.27       6.27       4.64
C      10.73       6.53       8.42
C       9.33       6.43       8.35
C       9.47       5.97       6.16
C       4.97       3.64       7.15
C       5.48       6.08       9.91
N      11.53       6.31       7.34
N       8.67       6.15       7.21
O       6.28       8.15       7.29
O       4.03       8.24       7.56
O       6.45       6.25       5.14
O       4.18       6.43       5.28
O       6.12       4.19       7.12
O       3.85       4.25       7.15
O       6.60       6.12       9.31
O       4.34       5.96       9.36
