23

Zn      -3.15      13.10       0.77
Zn      -3.85      11.65      -1.91
Zn      -1.97      10.13       0.31
Zn      -5.03      10.42       0.83
O      -3.50      11.33      -0.00
O      -3.15      14.56      -0.53
O      -2.30      10.90      -2.92
O      -0.50      11.12       1.13
O      -3.85      13.53      -2.43
O      -1.46      13.09       1.74
O      -1.46       9.37      -1.47
O      -2.37       8.55       1.37
O      -5.54      11.49       2.44
O      -4.63       8.66       1.58
O      -4.69      13.55       1.94
O      -5.54      10.83      -2.43
O      -6.50      10.27      -0.44
C      -3.50      14.56      -1.76
C      -1.58       9.91      -2.61
C      -0.49      12.26       1.71
C      -3.50       8.09       1.76
C      -5.42      12.74       2.61
C      -6.51      10.40      -1.71
