15

Cu      13.63      15.02      30.94
Cu      12.34      13.74      33.54
Cu      14.94      12.43      32.22
N      11.57      15.25      32.80
C      11.41      16.87      31.32
N      15.13      14.29      30.16
N      12.13      15.80      31.67
N      15.71      13.17      30.71
C      10.50      15.99      33.14
C      15.85      14.64      29.08
N      13.08      12.24      34.30
C      12.74      11.51      35.38
C      14.54      10.59      34.46
N      14.20      11.67      33.73
C      16.78      12.83      29.97
