10

Al       0.15       6.16       3.56
C       2.17       7.93       4.60
C       2.17       4.37       4.57
C       2.17       6.17       1.50
O       1.22       5.56       2.08
O       1.22       7.73       3.77
O       1.22       5.18       4.81
O      -0.92       6.78       2.09
O      -0.92       4.58       3.75
O      -0.92       7.12       4.83
