18

Al       5.92       5.63       9.30
Al       2.60       5.70       9.38
O       3.13       4.53       7.96
O       6.45       6.79      10.72
O       5.38       4.19      10.48
O       8.70       7.13       8.20
O       5.39       4.59       7.79
O       8.71       6.73      10.90
H       4.32       7.25      10.02
H       7.64       4.08       8.66
O       6.45       6.97       8.00
O       3.13       4.36      10.68
C       4.27       3.82      10.97
C       7.59       7.51       7.71
C       4.24       4.17       7.43
C       7.56       7.15      11.25
O       4.28       6.48       9.43
O       7.60       4.85       9.25
