18

O       5.31      11.99       1.55
O       2.97      12.10      -1.38
Al       2.47      13.22       0.08
Al       5.81      13.18       0.08
O       1.89      14.51      -1.20
O       3.03      11.88       1.37
O       1.97      14.38       1.55
O       5.22      11.89      -1.20
O       4.15      14.02       0.14
O       6.37      14.50       1.39
O       6.31      14.30      -1.37
O       7.48      12.38       0.12
C       4.11      11.66      -1.76
C       4.15      11.59       1.93
C       7.49      14.77       1.95
C       7.44      14.74      -1.76
H       4.18      14.82       0.68
H       7.51      11.53       0.59
