29

Zn       6.20       4.57       7.91
S       8.82       6.72       7.27
S       3.57       2.94       9.45
N       7.34       3.01       6.78
N       4.99       6.24       8.46
N       5.05       4.37       6.00
N       7.40       4.21       9.63
O       9.97       5.87       6.99
O       7.53       6.06       6.99
O       8.84       7.47       8.51
O       2.42       3.12       8.58
O       4.87       3.02       8.74
O       3.55       3.63      10.73
F       7.83       8.87       6.05
F      10.02       8.72       5.98
F       8.78       7.43       4.70
F       4.56       0.81      10.71
F       2.37       0.82      10.54
C       6.88       1.75       6.84
C       8.19       3.32       5.79
F       3.61       0.35       8.78
C       8.86       8.01       5.93
C       5.55       7.37       8.91
C       3.70       6.20       8.10
C       5.51       5.05       4.93
C       4.20       3.35       5.77
C       3.53       1.13       9.90
C       6.84       4.03      10.84
C       8.69       3.91       9.42
