23

Zn      18.19      10.75       9.29
Zn      16.54       9.87       6.65
Zn      19.77       9.86       6.64
Zn      18.19      12.65       6.70
C      15.59       9.37       9.39
C      18.27      13.69       9.45
C      20.70       9.21       9.35
C      15.61      12.33       5.31
C      18.12       7.91       5.15
C      20.67      12.25       5.19
O      15.39       9.28       8.14
O      16.57       9.90      10.00
O      18.26      13.92       8.20
O      18.29      12.57      10.04
O      20.89       9.15       8.10
O      19.74       9.76       9.97
O      16.58      13.08       5.64
O      15.41      11.11       5.60
O      19.26       8.35       5.48
O      16.98       8.36       5.47
O      19.72      13.02       5.54
O      20.86      11.04       5.50
O      18.16      10.78       7.32
