16

Cu       3.99       6.89       6.89
Si       0.00       6.89       6.89
C       2.81       6.89       4.15
C       5.14       6.88       4.15
N       4.01       8.94       6.89
N       3.97       4.83       6.89
N       4.01       6.89       8.95
N       3.97       6.88       4.83
F       1.74       6.88       6.88
F       6.24       6.89       6.89
C       2.84       9.62       6.89
C       5.17       9.62       6.89
C       2.81       4.15       6.89
C       5.14       4.15       6.89
C       2.84       6.89       9.62
C       5.17       6.88       9.62
