10

Al       4.08      17.53      10.12
C       2.02      15.49      10.08
O       2.98      16.09       9.51
O       2.98      17.72      11.67
O       3.01      18.80       9.15
O       5.14      16.04      10.68
O       5.17      17.78       8.58
O       5.14      18.76      11.14
C       2.02      18.52      11.91
C       2.04      18.56       8.35
