20

Zn      30.61      25.52      17.36
O      29.19      26.89      20.06
O      29.19      25.02      18.76
O      29.20      26.65      16.36
Zn      30.60      27.95      19.01
O      32.02      26.58      16.32
O      32.01      24.93      18.74
O      29.19      28.53      17.64
O      32.00      28.46      17.60
O      32.01      26.83      20.00
C      28.79      25.72      19.75
C      28.80      27.82      16.66
C      32.41      27.76      16.62
C      32.41      25.66      19.71
C      31.73      23.09      15.71
C      29.43      23.11      15.71
C      29.46      30.38      20.66
C      31.77      30.36      20.65
N      30.58      23.69      16.11
N      30.62      29.78      20.25
