36

Zn       1.26       1.21      13.11
Zn      -1.10      -1.24      13.19
N      -2.02      -2.77      10.89
N      -0.07       2.24      10.76
N      -2.22       0.18      10.90
Zn       1.29       1.04       9.84
N       2.84       1.90      10.77
N       0.86      -1.72      12.98
Zn      -1.17      -1.19       9.91
N      -0.18       2.21      12.13
N      -1.96      -2.82      12.27
N       0.25       0.71       8.12
N       0.73      -1.85      10.02
N      -0.71      -0.17      14.89
N       1.81      -0.73      12.97
N      -0.82      -0.16       8.18
N       1.74      -0.94       9.99
N      -2.28       0.09      12.26
C      -0.01       1.62      15.92
C       1.49      -2.85      13.30
C      -1.53       0.03       7.06
C       2.84      -1.60       9.60
C      -3.40       0.71      12.67
C       4.03       2.46      12.53
C      -0.44       3.46      10.37
C      -2.44      -3.97      10.49
C      -3.29       0.87      10.46
C       4.09       2.16      10.34
C      -0.62       3.42      12.55
C      -2.35      -4.05      12.67
C       0.18       1.40       6.97
C       1.20      -3.05       9.65
C      -1.43      -0.00      16.01
C       2.98      -1.29      13.29
N       0.21       0.88      14.84
N       2.80       2.08      12.13
