32

O       0.01       8.27      12.62
Dy      -0.01      14.26      13.15
Dy      -0.20      10.41      11.85
O      -2.34       9.05      11.05
C       2.07      11.79      13.94
C      -2.05      16.81      13.96
O      -1.90      11.64      10.66
H      -2.54       8.39      11.74
C       2.15       9.04       8.57
O      -0.02      14.19      15.66
H      -1.96       8.57      10.29
H      -2.77      11.22      10.74
H      -1.97      12.62      10.84
C       1.37       9.45       9.77
H       0.87      14.43      15.96
H      -0.62      14.91      15.93
C       1.45      13.31      10.76
C      -1.46      15.30      10.77
C       0.00       7.16      12.04
O       1.31      10.87      13.54
C       1.94      17.05      14.09
C      -1.96      11.48      14.05
O       1.80      13.04      13.92
O      -1.75      15.56      13.99
O      -1.80      10.32      13.55
O       1.29      16.01      13.74
O      -1.32      12.49      13.60
O       1.97       9.81      10.84
O       0.08       9.45       9.71
O       0.62      12.47      11.24
O       1.59      14.43      11.33
O      -1.61      14.17      11.34
