10

Al       0.07      -5.89      10.21
O       1.12      -6.85      11.50
O       1.12      -6.53       8.73
O       1.13      -4.32      10.37
O      -0.98      -7.47      10.38
O      -0.98      -4.93      11.51
O      -0.98      -5.24       8.75
C       2.06      -5.89       8.15
C       2.05      -4.11      11.24
C       2.06      -7.67      11.23
