20

Zn       8.62       6.82      11.59
Zn       5.73       6.67      11.89
C       6.96       9.31      11.63
C       7.38       4.18      11.89
C       6.99       6.60       9.19
C       7.47       6.91      14.27
C       3.15       5.49      12.74
C      11.19       8.00      10.72
C       2.96       7.39      11.39
C      11.37       6.14      12.13
N      10.62       7.00      11.45
N       3.72       6.51      12.04
O       8.06       8.77      11.88
O       6.33       4.74      12.40
O       5.88       8.67      11.29
O       8.35       4.79      11.38
O       8.09       7.04       9.63
O       6.33       7.17      13.80
O       5.99       6.22       9.87
O       8.52       6.59      13.63
