23

C      18.07       7.67       5.26
Zn      18.09      10.59       9.25
Zn      16.48       9.74       6.66
Zn      19.73       9.69       6.66
Zn      18.17      12.47       6.67
C      20.73      12.04       5.21
O      15.30       9.12       8.11
O      16.49       9.68       9.95
O      18.16      13.74       8.16
O      18.06      12.40       9.99
O      20.86       9.07       8.15
O      19.66       9.68       9.99
O      16.63      12.89       5.51
O      15.41      10.98       5.57
O      19.21       8.14       5.58
O      16.94       8.17       5.56
O      20.88      10.82       5.53
O      19.80      12.81       5.62
O      18.12      10.61       7.29
C      15.50       9.14       9.37
C      18.08      13.54       9.42
C      20.68       9.16       9.41
C      15.63      12.17       5.18
