27

Fe      -0.00       5.83       3.37
Fe      -2.65       7.95       3.37
Fe       2.65       6.89       5.20
C      -2.00       4.30       5.12
C      -0.65       9.47       5.12
C       0.65       9.17       5.65
C       3.30       7.19       1.17
C       2.00       6.58       1.17
C      -3.30       4.61       5.65
C      -0.00       4.30       2.49
C      -2.65       9.47       2.49
C       2.65       6.89       6.96
N      -1.64       5.37       4.33
N      -1.01       8.41       4.33
N       1.01       7.95       5.12
N       3.66       7.34       2.49
N       1.64       6.43       2.49
N      -3.66       5.83       5.12
N      -2.65       6.24       4.35
N      -0.00       7.54       4.35
N       2.65       6.89       3.23
Cl      -1.33       6.89       1.85
Cl       1.32       5.05       5.04
Cl      -3.98       8.73       5.04
O      -0.00       3.30       1.91
O      -2.65      10.48       1.91
O       2.65       6.89       8.12
