20

Zn       6.05       5.58       7.68
Zn       3.33       5.55       7.61
C       4.69       8.19       7.69
C       4.70       2.95       7.61
C      10.18       4.54       8.18
C       8.79       6.59       7.11
C      10.18       6.58       7.09
C       8.79       4.55       8.20
C       4.74       5.65       5.03
C       4.65       5.48      10.26
N       8.11       5.58       7.66
N      10.86       5.55       7.63
O       5.82       7.61       7.75
O       3.56       3.52       7.55
O       5.83       3.53       7.66
O       3.56       7.60       7.63
O       5.85       5.66       5.63
O       3.53       5.47       9.66
O       5.80       5.52       9.72
O       3.59       5.61       5.57
