23

Zn      22.34       7.81       0.54
Zn      23.89      10.63       0.75
Zn      25.55       7.87       0.70
Zn      24.08       8.86      -1.94
C      21.27      10.15       2.01
C      26.42      10.24       2.23
C      23.90       5.79       2.02
C      26.66       7.46      -2.01
C      21.57       7.32      -2.26
C      23.94      11.82      -1.95
O      23.95       8.80       0.02
O      21.18       8.92       1.67
O      25.40      10.97       1.96
O      25.04       6.33       1.81
O      22.23      10.95       1.75
O      22.77       6.19       1.58
O      26.65       9.08       1.77
O      26.69       7.21      -0.75
O      22.65       7.80      -2.74
O      25.76       8.12      -2.63
O      21.27       7.28      -1.02
O      23.94      11.99      -0.69
O      23.94      10.71      -2.59
