23

Zn      19.77       9.59       0.89
Zn      20.42      11.14      -1.92
Zn      18.49      12.38       0.23
Zn      21.70      12.07       0.80
O      19.45       8.30      -0.58
C      18.07      12.77      -2.67
O      20.10      11.29      -0.00
C      20.10       8.26      -1.68
O      18.95      11.87      -2.97
C      17.10      10.33       1.74
O      16.99      11.26       0.88
O      18.17       9.71       2.05
C      22.12       9.82       2.66
O      17.89      13.16      -1.45
O      18.98      13.72       1.60
O      22.30      11.06       2.35
O      21.24       9.08       2.06
O      20.74       9.21      -2.23
O      22.02      12.19      -2.43
C      20.10      14.33       1.68
O      21.21      13.94       1.21
O      23.20      12.02      -0.50
C      23.09      12.26      -1.74
