20

O       2.50      13.24       0.29
O       1.77      11.87       1.94
Zn       2.15      11.94      -1.26
O       0.12      12.26      -0.80
Zn       1.94      10.13       0.83
O       1.51      10.33      -2.34
O       4.12      11.36      -1.20
O      -0.06      10.34       0.40
O       1.96       8.79      -0.74
O       3.96      10.37       0.83
C       2.11      13.00       1.47
C      -0.54      11.34      -0.23
C       1.52       9.14      -1.88
C       4.61      10.83      -0.15
C       1.58      14.47      -2.76
C       2.94      13.03      -3.94
C       0.72       8.80       3.22
C       2.55       7.65       2.40
N       2.25      13.29      -2.85
N       1.73       8.69       2.32
