23

Zn      25.55       9.68       6.98
Zn      28.78       9.61       6.93
Zn      27.28      10.60       9.52
Zn      27.20      12.42       6.84
O      25.98       8.09       5.92
O      24.57       9.09       8.57
O      28.26       7.95       6.07
O      27.39      12.46      10.16
O      30.06       9.13       8.35
O      25.71      12.74       5.62
O      28.82       9.60      10.20
O      24.40      10.93       6.03
O      27.14      13.76       8.30
O      29.86      10.73       5.73
O      25.74       9.78      10.40
C      29.78      11.98       5.48
C      24.77       9.19       9.82
C      27.10       7.53       5.70
C      27.22      13.57       9.56
C      29.84       9.12       9.61
C      24.64      12.05       5.47
O      27.21      10.60       7.57
O      28.85      12.78       5.83
