26

Mn       5.49      15.89       8.43
Mn       2.40      16.54      10.81
C       6.98      14.83       6.54
C       0.91      17.60      12.70
N       4.84      17.46       6.99
N       3.05      14.97      12.25
N       5.97      14.43      10.03
N       1.91      18.00       9.21
O       4.47      17.12      10.82
O       3.42      15.31       8.42
O       6.34      17.50       9.63
O       1.55      14.93       9.61
O       5.86      14.32       6.92
O       2.02      18.11      12.32
O       7.50      15.84       7.11
O       0.39      16.59      12.12
C       5.54      18.60       6.82
C       2.34      13.83      12.42
C       3.88      17.18       6.09
C       4.01      15.25      13.15
C       5.55      17.77      10.59
C       2.34      14.66       8.65
C       6.93      14.62      10.96
C       0.96      17.81       8.27
C       5.25      13.30      10.09
C       2.64      19.14       9.15
