10

Al       0.03      28.93      25.05
O       1.02      29.79      23.65
O       1.02      29.71      26.50
O      -0.97      27.92      23.75
O       1.02      27.28      25.00
O      -0.97      28.30      26.57
O      -0.97      30.56      24.83
C       1.90      30.70      23.90
C       1.90      29.03      27.16
C      -1.85      27.05      24.09
