23

Zn      -1.59       6.16       6.80
Zn       1.62       6.19       6.78
Zn       0.01       3.44       6.83
Zn       0.03       5.25       9.46
C      -2.54       6.74       9.53
O       0.02       5.29       7.49
O       1.61       6.18      10.18
O      -1.10       7.71       5.70
O      -2.73       5.02       5.68
O       1.17       7.77       5.68
O      -0.01       2.15       8.30
O       2.75       5.02       5.68
O      -1.57       6.18      10.15
O       1.58       3.07       5.71
O      -2.70       6.82       8.27
O       0.02       3.42      10.18
O       2.70       6.82       8.29
O      -1.56       3.07       5.72
C       2.57       6.74       9.56
C      -2.55       3.79       5.36
C       0.02       8.22       5.36
C       0.02       2.31       9.56
C       2.57       3.80       5.36
