20

Cu      -9.39      10.11      17.20
Cu      -9.39      11.59      19.22
O      -7.99      11.34      16.47
O      -7.99      12.66      18.32
H     -10.16       9.76      14.73
O     -10.79      11.34      16.47
O     -10.78      12.66      18.32
O     -10.79      10.36      19.95
O     -10.79       9.04      18.09
H     -10.16      11.94      21.68
O      -9.39       9.25      15.04
O      -9.39      12.45      21.38
H      -8.62      11.94      21.68
H      -8.62       9.77      14.74
C      -7.62       9.34      19.28
C      -7.61      12.36      17.14
C     -11.16      12.36      17.14
C     -11.17       9.34      19.27
O      -7.99      10.36      19.95
O      -8.00       9.04      18.10
