23

Zn       6.47       6.07      15.04
Zn       6.84       5.99      18.20
Zn       4.94       8.24      16.88
Zn       8.02       8.45      16.45
O       6.55       7.16      16.65
O       3.74       7.96      15.32
O       4.07       7.71      18.56
O       9.13       8.46      18.07
O       9.21       7.85      15.01
O       5.31      10.14      17.06
O       6.88       4.11      17.69
O       6.67       4.19      15.42
O       7.32      10.20      16.02
O       5.51       6.27      19.62
O       4.79       6.39      14.04
O       7.83       6.57      13.71
O       8.60       6.42      18.97
C       4.50       7.04      19.56
C       3.90       7.25      14.29
C       8.90       7.22      13.96
C       9.28       7.49      18.88
C       6.30      10.77      16.53
C       6.92       3.60      16.52
