20

Zn       4.16       4.97       7.59
Zn       3.29       7.64       7.57
C       3.72       6.28       5.00
C       1.28       5.40       7.63
C       3.54       6.21      10.16
C       6.13       7.20       7.88
C       1.24       9.73       7.09
C       3.20      10.56       8.00
C       5.59       2.60       8.68
C       4.91       2.35       6.46
N       2.48       9.52       7.55
N       4.98       3.10       7.58
O       3.84       5.14       5.57
O       3.66       7.41       5.59
O       2.17       4.52       7.88
O       1.49       6.58       7.22
O       4.32       5.35       9.63
O       2.91       7.13       9.54
O       5.89       6.06       7.37
O       5.26       8.11       8.09
