17

Cd       0.51      11.43       4.48
C       3.01       9.10       4.52
C       2.99      13.76       5.33
C      -1.97      13.78       5.22
N       2.18       9.84       4.16
N       2.14      13.05       4.95
N      -1.16      13.09       4.73
N      -1.16       9.82       4.09
N       0.06      10.91       6.74
N       0.75      12.05       2.22
H       0.35      11.67       7.37
H      -0.96      10.91       6.73
C       0.59       9.60       7.18
C       0.35      11.13       1.15
H       0.22      12.93       2.16
H       1.74      12.30       2.15
C      -1.98       9.09       4.51
