12

Cu       0.77       6.30      12.32
C       1.21       4.66      14.64
O       0.05       8.00      11.56
N       1.63       5.49      10.42
C       2.28       7.98      14.08
O      -0.99       5.45      11.87
C       2.14       6.21       9.39
C      -0.84       8.67      12.18
C       1.36       4.19      10.22
O       1.33       4.68      13.37
C      -1.92       5.38      12.74
O       2.38       7.26      13.04
