20

Zn       5.24       5.98       8.80
Zn       5.24       8.78       8.91
C       5.23       7.45       6.25
C       2.59       7.44       8.85
C       5.24       7.24      11.47
C       7.88       7.43       8.87
C       4.42      11.56       8.22
C       6.07      11.48       9.83
C       6.03       3.21       9.52
C       4.43       3.29       7.86
N       5.25      10.83       8.99
N       5.23       3.94       8.72
O       5.22       6.28       6.75
O       5.23       8.55       6.90
O       3.08       8.61       8.89
O       3.26       6.36       8.81
O       5.25       8.39      10.90
O       5.26       6.12      10.87
O       7.21       6.36       8.82
O       7.40       8.61       8.93
