13

C       3.00       2.65       2.54
C       4.27      -1.54       2.33
N       2.45       1.42       2.22
Zn       1.97      -0.06       3.48
C       1.94       1.52       6.03
N       2.45       0.49       5.33
C       2.35       1.41       0.88
C       2.99      -2.95       3.37
N       0.06      -0.61       3.38
C      -0.48      -1.38       2.42
C       3.35      -0.13       6.17
C      -0.96      -0.37       4.29
N       3.09      -1.63       2.97
