18

Zn       7.19       6.02       8.09
Zn       7.19       8.86       8.09
C       7.18       7.44      10.69
N       7.19      10.91       8.09
N       7.19       3.97       8.09
O       7.18       6.30      10.12
O       7.20       8.58       6.06
O       7.20       6.30       6.06
C       7.20       7.44       5.49
C       9.80       7.44       8.09
C       4.58       7.44       8.08
C       7.19       2.81       8.09
C       7.19      12.07       8.09
O       7.18       8.58      10.12
O       9.24       6.29       8.09
O       5.14       8.58       8.08
O       5.14       6.29       8.08
O       9.24       8.58       8.09
