19

Zn      -1.71      -3.91       6.77
N      -0.46      -2.48       5.62
N      -2.95      -5.34       7.92
N       0.05      -4.96       6.49
N      -3.46      -2.86       7.06
N       0.53      -6.16       6.85
N      -3.94      -1.66       6.69
N      -2.60      -4.88       4.92
N      -0.81      -2.94       8.62
C      -0.80      -1.22       5.31
C      -2.61      -6.59       8.24
C       0.78      -2.95       5.33
C      -4.19      -4.87       8.22
C       1.01      -4.32       5.78
C      -4.43      -3.50       7.77
C      -3.69      -4.32       4.37
C       0.28      -3.49       9.18
C      -2.27      -6.13       4.55
C      -1.14      -1.69       8.99
