18

Al       1.75      29.21      24.94
Al       5.06      29.39      25.00
H       3.27      30.84      25.69
H      -0.03      27.76      24.25
C       3.43      27.76      26.86
C       0.13      30.84      23.08
C       3.47      27.56      23.29
C       0.16      31.04      26.65
O       1.22      30.45      26.28
O       4.53      28.15      23.65
O       2.29      27.99      26.34
O       5.60      30.61      23.59
O       3.37      30.13      25.02
O       0.07      28.47      24.92
O       4.56      28.18      26.45
O       1.26      30.42      23.49
O       2.29      27.91      23.65
O      -1.02      30.69      26.29
