18

Zn       6.69       5.94       8.04
Zn       3.94       5.94       8.04
O       6.46       5.94       6.01
O       4.18       5.94       6.01
O       6.46       5.94      10.08
O       4.18       5.94      10.08
C       5.32       8.54       8.04
C       5.32       5.93       5.45
C       5.32       5.93      10.64
O       6.46       3.91       8.04
O       4.18       3.91       8.04
C      11.32       5.93       8.04
C       9.95       5.93       8.04
C       5.32       3.34       8.04
N      12.48       5.94       8.04
N       8.79       5.94       8.04
O       6.46       7.97       8.04
O       4.18       7.97       8.04
