13

Zn       2.87       5.17       6.52
O       1.96       5.56       8.31
C       4.69       6.96       7.03
O       4.58       4.11       5.94
C       2.21       5.35       9.54
O       3.22       4.69       9.99
O       1.71       3.68       6.09
Zn       4.29       4.04       8.54
O       5.86       3.38       7.66
O       2.81       2.68       7.83
O       3.72       6.89       6.18
C       1.94       2.71       6.91
C       5.68       3.66       6.40
