20

Zn       8.26      10.04       8.91
Zn       8.26       7.04       8.92
C       8.23       8.54       6.32
C      10.84       8.54       9.00
C       8.39       8.54      11.50
C       5.68       8.54       8.86
C       9.09      12.93       8.11
C       9.08       4.14       8.11
C       7.44      12.93       9.73
C       7.43       4.15       9.73
N       8.27      12.22       8.92
N       8.26       4.86       8.92
O       8.23       9.68       6.89
O       8.23       7.40       6.89
O      10.29       9.68       8.98
O      10.29       7.39       8.98
O       8.32       9.68      10.93
O       8.33       7.40      10.93
O       6.24       9.68       8.85
O       6.25       7.40       8.85
