23

Zn      23.22      18.67      17.04
Zn      21.73      19.51      14.30
Zn      19.99      18.66      16.81
Zn      21.62      21.42      16.88
O      21.65      19.56      16.26
O      24.42      17.96      15.65
O      20.33      18.34      13.56
O      20.38      16.95      17.71
O      23.47      18.79      13.75
O      22.63      17.13      18.14
O      18.85      18.22      15.27
O      19.00      19.78      18.09
C      24.37      18.16      14.39
C      19.20      18.02      14.06
O      24.28      19.86      18.18
C      21.49      16.55      18.21
O      21.54      21.30      13.51
C      24.09      21.09      18.49
C      21.62      22.43      14.09
C      19.09      21.04      18.32
O      23.12      21.81      18.07
O      19.97      21.84      17.87
O      21.71      22.65      15.35
