10

Al       3.94      21.74       4.18
O       2.90      22.39       2.71
O       2.90      20.14       4.36
O       2.90      22.68       5.48
O       4.99      21.09       2.71
O       4.99      23.33       4.35
O       4.99      20.79       5.48
C       1.97      21.74       2.12
C       1.97      19.95       5.21
C       1.97      23.52       5.21
