23

Zn       3.89       7.86       8.72
O       5.67       7.94       7.89
Zn       3.23       6.35      11.47
O       3.56       6.11       9.55
Zn       5.13       4.96       9.29
O       3.80       9.32      10.04
Zn       1.99       5.27       8.72
O       5.90       4.39      11.00
O       6.55       5.88       8.29
O       3.32       8.25      11.99
O       2.57       8.25       7.32
O       4.68       3.33       8.29
O       4.55       5.38      12.55
O       1.45       5.70      11.99
O       1.22       6.41       7.32
O       0.57       4.92      10.03
O       2.44       3.55       7.89
C       6.59       7.06       7.81
C       5.54       4.66      12.20
C       3.56       9.29      11.29
C       0.53       5.16      11.29
C       1.58       7.56       6.90
C       3.56       2.93       7.81
