14

Zn       2.07       1.28      30.29
Zn       4.77       1.24      30.30
O       2.79      -0.63      30.25
O       5.06      -0.72      30.29
O       4.06       1.28      28.39
O       1.80       1.28      28.32
O       5.06       3.21      30.31
O       2.78       3.19      30.31
O       1.77       1.23      32.25
O       4.03       1.23      32.19
C       3.89      -1.27      30.28
C       2.96       1.27      27.76
C       3.91       3.78      30.31
C       2.92       1.21      32.81
