12

C       1.88      12.35       9.70
O       0.23      12.05      12.67
C       2.52       9.48      13.37
Zn       0.38      10.36      11.44
C      -2.52       9.90      11.90
N       0.98      11.34       9.75
O       0.35       8.43      10.71
C      -0.10      12.01      13.90
C       0.10       7.37      11.38
O      -1.66      10.44      11.13
C       0.45      11.27       8.50
O       2.27      10.02      12.25
