18

H       2.83       6.88      25.90
H       6.25       3.35      26.13
Al       4.53       5.11      26.05
Al       1.11       5.12      25.98
O       1.68       3.94      24.59
O       5.10       6.29      27.44
O       3.95       3.89      27.44
O       0.54       6.34      24.59
O       3.95       3.83      24.75
O       0.53       6.40      27.28
O       5.09       6.37      24.69
O       1.67       3.86      27.34
O       2.82       5.92      26.04
O       6.24       4.31      25.99
C       2.80       3.56      27.85
C       6.21       6.67      24.18
C       2.83       3.52      24.20
C       6.25       6.71      27.83
