20

Zn       3.38       5.50       9.63
Zn       6.24       5.51       9.63
C       4.80       2.85       9.62
C       4.82       8.10       9.67
C       4.87       5.47       7.10
C       4.84       5.45      12.16
C      -0.74       6.43      10.27
C       0.65       4.50       9.02
C      -0.74       4.50       9.01
C       0.65       6.45      10.25
N       1.33       5.48       9.63
N      -1.42       5.47       9.64
O       3.77       3.46       9.15
O       5.88       7.51       9.32
O       3.74       7.51      10.07
O       5.83       3.45      10.08
O       3.81       5.91       7.66
O       5.89       5.87      11.59
O       3.78       5.05      11.58
O       5.89       5.01       7.69
