18

Al       5.65      14.60      12.47
Al       2.35      14.70      12.50
O       2.88      15.98      13.81
O       6.18      13.32      11.15
O       5.16      15.83      11.04
O       8.46      13.47      13.92
O       5.13      15.84      13.81
O       8.43      13.46      11.15
O       6.18      13.37      13.87
O       2.88      15.93      11.10
H       3.92      13.09      11.79
H       7.22      16.21      13.18
O       3.98      13.82      12.43
O       7.28      15.48      12.53
C       4.02      16.21      10.62
C       7.32      13.09      14.35
C       4.04      16.38      14.18
C       7.34      12.92      10.79
