54

Zr       5.66       3.66       5.49
Zr       2.11       1.47       8.21
Zr       3.99       0.55       5.36
Zr       3.78       4.58       8.33
Zr       5.65       1.56       8.33
Zr       2.13       3.57       5.36
H       6.75       1.05       5.77
H       3.78       2.51      10.26
H       1.19       0.90       5.59
H       3.83       5.80       5.77
C       8.37       2.71       7.03
C       3.88      -0.13      10.43
C      -0.59       2.56       6.75
C       3.92       5.12       3.16
C       6.26       1.48       3.20
C       6.10       6.46       7.01
C       1.42       3.71      10.42
C       1.80      -1.40       6.80
C       6.16      -1.32       6.86
C       1.87       1.27       3.03
C       1.50       6.39       6.91
C       6.04       3.94      10.55
O       7.80       3.39       6.11
O       2.74       0.17       9.93
O      -0.02       1.85       7.66
O       5.05       4.86       3.71
O       5.42       0.61       3.62
O       5.20       6.30       7.91
O       2.27       4.57      10.01
O       2.65      -1.22       5.87
O       6.43      -0.51       7.81
O       1.52       2.41       3.50
O       1.26       5.58       5.95
O       6.36       2.79      10.10
O       2.73       0.47       3.54
O       2.34       6.21       7.86
O       5.13       4.71      10.10
O       5.35      -1.12       5.89
O       6.48       2.62       3.73
O       1.47      -0.55       7.70
O       1.23       2.56       9.90
O       6.39       5.65       6.07
O       2.77       4.81       3.62
O       7.79       2.02       7.94
O       5.02       0.24      10.00
O      -0.00       3.20       5.81
O       3.84       4.89       6.08
O       1.96       1.38       5.94
O       3.82       2.52       9.29
O       5.94       1.48       6.08
O       3.93       0.86       7.41
O       5.31       3.44       7.52
O       2.38       3.37       7.41
O       3.94       2.60       5.05
