54

Co      -0.85       7.44       7.50
Co      -2.06       9.98      10.34
N       1.27       7.48       7.54
N      -2.94       7.35       7.45
N      -4.17       9.94      10.30
N       0.04      10.07      10.39
O      -2.13      10.56      12.38
O      -2.18      12.16      10.85
O      -0.84       9.36       7.04
O      -2.15      10.55       8.45
O      -0.78       6.86       5.46
H       1.38       9.11       6.29
O      -0.73       5.26       6.99
O      -0.76       6.87       9.39
H      -5.52       8.78       5.82
H      -3.05       8.67       5.86
H      -3.07       5.97       9.00
O      -2.07       8.06      10.80
H       1.36       5.84       8.80
H      -5.52       6.00       9.14
H       3.83       5.71       8.82
H      -6.77       8.24      11.60
H      -4.28       8.31      11.55
H      -4.27      11.58       9.04
H      -6.73      11.71       9.02
H       2.61       8.64      12.02
H       0.15       8.75      11.98
H       0.16      11.45       8.84
H       2.62      11.42       8.70
C      -2.21      11.80      12.07
C      -1.56      10.38       7.33
C       4.10       7.44       7.52
C       3.36       8.41       6.81
C       1.97       8.38       6.84
C       1.96       6.55       8.24
C       3.35       6.50       8.25
C      -5.78       7.41       7.50
C      -5.03       8.15       6.57
C      -3.64       8.10       6.58
C      -3.65       6.60       8.32
C      -5.03       6.61       8.39
C      -0.70       5.62       5.77
H       3.86       9.19       6.24
C      -1.35       7.04      10.51
C      -7.00       9.98      10.32
C      -6.27       9.02      11.03
C      -4.88       9.04      11.00
C      -4.87      10.87       9.60
C      -6.25      10.92       9.59
C       2.87      10.01      10.34
C       2.12       9.27      11.27
C       0.74       9.32      11.26
C       0.74      10.82       9.52
C       2.13      10.81       9.45
