19

Tb       9.37      19.71      11.38
O       8.93      18.25      13.33
O       8.93      22.13      11.67
O       8.93      18.75       9.14
O       7.19      19.26       7.88
O       7.19      16.90      13.51
O       7.19      22.96      12.74
C      11.49      17.09      10.33
C      11.49      20.11      14.17
C      11.49      21.93       9.63
N       7.87      19.43       8.90
N       7.87      17.70      12.86
N       7.87      22.00      12.38
O      10.88      18.03      10.92
O      10.88      20.15      13.07
O      10.88      20.95      10.15
O       7.57      20.32       9.79
O       7.57      18.03      11.65
O       7.57      20.79      12.70
