23

Zn      19.83      16.73      11.93
Zn      16.69      16.77      11.90
O      19.70      16.94       8.58
Zn      18.22      15.84       9.27
Zn      18.22      13.91      11.80
O      19.65      13.56      13.12
O      16.45      13.58      12.62
O      16.47      16.47       8.65
O      18.26      15.80      11.23
O      20.89      15.47      13.00
O      20.94      17.36      10.44
O      15.61      17.54      10.47
O      15.74      15.66      13.20
O      19.46      18.23      13.14
O      18.40      14.04       8.50
O      18.36      12.66      10.30
O      17.20      18.37      12.91
C      20.76      17.33       9.18
C      20.64      14.30      13.44
C      15.71      14.39      13.25
C      15.64      17.25       9.23
C      18.32      18.75      13.39
C      18.37      12.89       9.04
