36

Zn       4.30       6.78       8.80
Zn       1.80       2.74       8.80
Zn       1.93       5.49      10.62
Zn       4.21       4.07       6.99
C       5.76       2.35       8.84
C       4.28       4.87      12.41
N       4.78       5.76      10.46
N       0.86       4.36       8.12
N       2.08       7.54      10.66
N       3.17       2.47       6.24
N       2.21       1.85       7.01
N       3.02       8.07       9.82
N       3.07       5.60       6.42
N       0.93       5.50       8.86
N       3.67       2.61       9.48
N       0.92       3.86      11.33
N       5.97       5.13       6.95
N       0.80       2.72      10.58
N       6.03       6.23       7.78
N       4.67       3.13       8.71
N       3.80       5.16      11.19
N       3.18       6.77       7.11
C       5.88       5.86      11.23
C       2.77       7.77       6.31
C      -0.33       4.31       7.50
C       1.15       8.49      10.90
C       3.25       1.81       5.08
C       1.71       0.82       6.31
C       2.67       9.34       9.54
C       2.59       5.87       5.20
C       4.14       1.51      10.09
C      -0.23       6.17       8.71
C       0.21       3.69      12.46
C       7.23       4.70       6.74
C       0.02       1.86      11.26
C       7.32       6.45       8.08
