10

Al       4.22      12.24       0.00
O       5.35      10.75      -0.45
O       5.35      13.37      -1.06
O       5.35      12.59       1.51
O       3.05      11.40      -1.29
O       3.05      11.54       1.37
O       3.05      13.77      -0.08
C       6.39      14.06      -0.84
C       6.39      12.05       2.00
C       6.39      10.60      -1.16
