10

O       3.66       8.76       8.21
Al       4.73       8.46       9.77
C       2.61       8.17       7.78
C       6.79      10.33      10.52
C       6.79       6.88      11.02
O       5.89       7.78      11.15
O       5.89       7.61       8.49
O       5.89      10.00       9.67
O       3.66       6.96      10.30
O       3.66       9.67      10.81
