16

Zn       4.89       7.01       7.01
Si       0.97       7.01       7.01
C       6.04       4.13       7.01
C       6.04       9.85       7.01
C       3.75       9.89       7.01
N       4.90       7.01       4.85
N       4.88       7.01       9.17
N       4.90       4.85       7.01
N       4.88       9.17       7.01
F       2.74       7.01       7.01
F       7.04       7.01       7.00
C       3.74       7.01       4.16
C       6.03       7.01       4.13
C       6.04       7.01       9.85
C       3.75       7.01       9.89
C       3.74       4.17       7.01
