18

Al       2.13      28.62      25.96
Al       5.46      28.66      25.97
H       3.77      30.32      25.48
H       0.44      26.95      26.45
C       3.80      27.27      27.96
C       0.47      30.00      23.97
C       3.81      26.84      24.34
C       0.48      30.43      27.59
O       1.60      30.02      27.15
O       4.93      27.25      24.78
O       2.66      27.55      27.47
O       5.99      29.72      24.46
O       3.79      29.43      25.86
O       0.46      27.84      26.07
O       4.93      27.60      27.49
O       1.60      29.67      24.43
O       2.66      27.21      24.74
O      -0.67      30.06      27.19
