20

O       9.63       8.76      23.50
O       7.45       9.27      23.48
O       9.45       6.97      25.70
Zn       9.78       8.99      25.60
Zn       6.99       8.97      25.55
O       9.52       9.06      27.63
O       7.23       6.98      25.23
O       7.28       8.68      27.57
C       8.31      11.56      25.56
C       8.51       8.84      22.88
C       8.34       6.39      25.46
C       8.38       8.85      28.18
C      12.51       9.71      24.69
C      12.49       8.10      26.39
C       4.24       9.75      24.67
C       4.29       8.07      26.29
N      11.84       8.93      25.55
N       4.93       8.93      25.48
O       7.19      10.98      25.74
O       9.44      10.97      25.41
