23

Zn       7.01      -3.41      13.43
Zn       8.53      -4.36      16.07
Zn      10.15      -3.48      13.43
Zn       8.65      -6.21      13.37
C       6.47      -2.32      16.09
C       8.62      -2.31      11.24
C       5.83      -5.99      12.66
C      10.57      -2.24      16.00
C       9.18      -7.18      16.14
C      11.38      -5.95      12.62
O       8.55      -4.40      14.12
O       6.96      -3.33      16.70
O       6.42      -2.15      14.82
O       9.74      -2.78      11.64
O       7.51      -2.31      11.88
O       6.93      -6.61      12.52
O       5.65      -4.76      12.96
O      10.61      -2.09      14.74
O      10.07      -3.22      16.64
O       9.13      -7.40      14.89
O       8.73      -6.17      16.78
O      11.56      -4.86      13.26
O      10.26      -6.41      12.23
