18

Mg       1.59      -0.58      20.63
Mg      -0.69       1.05      19.81
Mg       3.87      -0.48      18.81
O       2.33       0.79      19.33
O       0.72       2.32      19.12
O       4.77       1.29      18.35
C       4.19       2.38      17.83
C       1.90       1.92      18.87
C      -0.37       0.46      22.77
C      -0.37      -1.73      18.52
C       4.18      -0.21      21.85
O       5.28      -1.71      18.05
O       2.50      -1.86      19.32
O       0.05      -0.77      19.27
C       1.91      -2.86      18.64
O       3.00      -0.62      22.07
O       4.61      -0.04      20.64
O       0.22       0.55      21.57
