12

C      11.56      11.10      36.77
C       7.68      14.23      35.11
C       9.37      15.02      36.24
Zn       8.71      12.08      36.89
O       8.61      11.96      38.83
C       9.59      12.58      39.44
N       8.58      13.90      36.03
C       6.63      10.46      35.30
N       7.05      11.06      36.44
C       6.16      10.66      37.42
C      10.54      10.65      34.91
N      10.35      11.18      36.11
