23

Zn       7.89      11.25      22.33
Zn       8.10       8.01      22.62
Zn       5.70       9.54      21.04
Zn       5.80       9.51      24.17
O       6.90       9.58      22.56
O       5.98       7.75      25.01
O       6.44       8.27      19.76
O       7.55      12.18      20.61
O       7.15      12.47      23.71
O       9.96       8.65      22.50
O       3.81       9.35      21.55
O       3.85       9.42      23.82
O       7.58       6.84      21.13
O       8.04       7.06      24.35
O       6.33      11.04      25.28
O       5.51      11.30      20.15
O       9.81      10.92      22.33
C       7.02       6.99      25.13
C       7.04       7.14      20.00
C       6.46      12.16      19.95
C       6.70      12.20      24.88
C      10.46       9.82      22.39
C       3.26       9.35      22.70
