20

Zn       3.37       5.41       5.55
Zn       6.10       5.52       5.55
C       4.62       8.08       5.48
C       4.75       2.85       5.49
C      -0.91       4.63       4.75
C      -0.88       6.27       6.39
C       0.48       4.62       4.78
C       0.51       6.21       6.38
C       4.81       5.49       8.16
C       4.79       5.51       2.95
N       1.20       5.40       5.59
N      -1.56       5.47       5.56
O       3.50       7.47       5.48
O       3.59       3.36       5.57
O       5.77       7.55       5.58
O       5.86       3.48       5.51
O       3.69       5.42       7.57
O       3.66       5.40       3.53
O       5.95       5.55       7.59
O       5.93       5.56       3.52
