19

Cd       6.08      15.90      24.33
Cd       2.00      15.90      25.67
C       7.38      13.30      24.40
C       7.38      18.49      24.40
C       7.82      15.90      21.46
C       5.75      15.90      21.00
C       6.49      15.90      27.48
N       2.76      17.71      26.91
C       2.04      18.35      27.88
N       2.76      14.08      26.91
C       2.04      13.44      27.88
C       3.86      18.45      26.76
N       6.58      15.90      22.03
C       3.86      13.34      26.76
Cl       3.59      15.90      23.65
O       7.93      14.47      24.42
O       7.93      17.32      24.42
O       5.60      15.90      26.56
O       0.36      15.90      27.32
