23

Zn       3.89       7.88       8.73
Zn       5.12       4.98       9.28
Zn       3.21       6.38      11.47
Zn       1.98       5.28       8.73
O       3.55       6.13       9.55
O       5.66       7.96       7.87
O       5.88       4.42      11.00
O       3.33       8.27      11.99
O       6.55       5.90       8.31
O       3.77       9.34      10.03
O       4.53       5.41      12.55
O       1.44       5.71      11.99
O       1.22       6.43       7.32
O       0.55       4.96      10.03
O       2.57       8.27       7.32
O       4.66       3.34       8.31
O       2.44       3.57       7.87
C       6.59       7.08       7.81
C       5.52       4.68      12.20
C       3.55       9.31      11.29
C       0.51       5.18      11.29
C       1.58       7.58       6.90
C       3.55       2.95       7.81
