18

Al       5.21       4.46       6.43
O       3.55       5.29       6.57
Al       1.87       4.50       6.47
O       6.89       3.67       6.34
C       6.86       5.87       8.44
O       2.40       3.43       4.96
H       3.57       6.07       7.14
O       5.74       5.53       7.94
H       6.91       2.89       5.77
O       4.67       3.04       7.62
C       3.54       2.68       8.07
O       1.33       5.92       5.29
C       6.87       6.28       4.83
O       4.68       3.41       4.92
O       1.34       5.55       7.99
C       3.53       3.10       4.47
O       5.74       5.84       5.20
O       2.40       3.12       7.70
