19

Co      12.48       8.75       4.56
C      15.15       8.70       3.32
C      15.02       9.04       5.63
C      14.11       9.20       6.76
C      11.87       9.17       7.42
C      13.15      11.58       4.23
C      10.89      11.03       4.49
C      12.99       6.12       5.80
C      12.63       6.19       3.49
C      12.32       7.06       2.36
C      11.96       9.27       1.69
C       9.81       7.59       4.89
C       9.96       9.91       4.63
N      14.40       8.86       4.43
N      12.79       9.06       6.44
N      12.20      10.64       4.38
N      12.71       6.83       4.69
N      12.23       8.38       2.67
N      10.56       8.69       4.74
