35

Zn      -1.87      -2.68       8.83
N      -1.79      -2.90       6.65
Zn      -2.03      -5.70       7.22
Zn      -4.70      -6.80       9.23
N      -6.19      -5.31       9.45
Zn      -4.60      -4.08      11.13
N      -4.06      -5.67       6.80
N      -4.77      -2.42       9.63
N      -4.88      -6.68       7.24
N      -3.62      -1.86       9.21
N      -6.44      -4.62      10.61
N      -1.51      -4.14       6.12
N      -2.73      -7.54       9.05
N      -2.00      -2.82      11.28
N      -0.37      -5.11       8.53
N      -4.02      -5.97      11.67
N      -4.65      -7.10      11.22
N      -0.27      -3.78       8.87
N      -3.17      -3.04      11.99
N      -2.06      -7.58       7.84
C      -1.06      -2.01       5.95
C       0.98      -3.34       8.64
C      -3.09      -2.42      13.17
C      -7.22      -5.12       8.61
C      -1.18      -8.58       7.91
C      -4.49      -5.27       5.59
C      -5.59      -1.43      10.04
C      -5.82      -6.90       6.30
C      -3.70      -0.53       9.40
C      -2.23      -8.51       9.83
C      -7.63      -4.00      10.48
C       0.86      -5.47       8.13
C      -0.62      -4.01       5.13
C      -3.47      -6.25      12.87
C      -4.47      -8.08      12.13
