23

Zn       2.41       5.90      10.93
Zn       4.50       6.19       8.57
Zn       2.47       3.70       8.52
Zn       4.68       3.79      10.80
C       6.96       5.49       9.99
C       0.01       4.74       9.72
C       3.34       8.50       9.91
C       4.15       1.38       9.21
C       3.43       5.03       6.08
C       3.44       4.49      13.27
O       3.53       4.89       9.66
O       6.44       4.65      10.79
O       0.57       5.64      10.44
O       3.89       8.07       8.84
O       3.17       1.84       8.54
O       4.09       5.95       6.67
O       4.05       3.57      12.64
O       2.71       4.13       6.60
O       2.90       5.53      12.79
O       2.87       7.83      10.87
O       4.89       2.00      10.03
O       6.40       6.18       9.08
O       0.61       3.81       9.06
