36

Zn      10.59       8.34       0.02
Zn       8.26      10.62       0.08
Zn       5.86       8.43       0.02
Zn       8.19       6.15       0.08
C       6.27       8.84      -3.00
C      10.65      12.38      -0.86
C      10.18       7.93      -3.00
C       5.80       4.39      -0.86
N       9.86       8.89       1.81
N       5.35      10.37       0.46
N       7.59       6.94       1.81
N      11.11       6.40       0.46
N       6.41      11.25       0.64
N       8.86       9.83       1.81
N      11.16      10.27      -0.43
N       8.80       6.84      -1.68
N       5.29       6.50      -0.43
N       7.65       9.94      -1.68
N       6.59       7.88       1.81
N      10.04       5.52       0.64
N       6.73       8.91      -1.73
N      10.14      11.21      -0.42
N       9.72       7.86      -1.73
N       6.31       5.56      -0.42
C      10.49       8.95       3.01
C       4.27      10.90       1.08
C       7.57       6.29       2.99
C      12.18       5.87       1.08
C       5.97      12.30       1.36
C       8.88      10.48       2.99
C      12.28      10.87      -0.86
C       8.71       6.27      -2.89
C       4.17       5.90      -0.86
C       7.75      10.50      -2.89
C       5.96       7.82       3.01
C      10.48       4.47       1.36
