23

Zn       8.01       8.77       7.13
Zn      10.48       8.72       9.16
Zn       8.66      11.22       9.18
Zn      10.37      10.71       6.52
C      12.88       9.64       7.69
C       5.98      10.13       8.80
C       8.97       6.29       8.40
C       9.30      13.37       7.26
C      10.06      10.33      11.53
C       8.88       9.35       4.38
O       9.40       9.85       7.98
O      10.17       9.15      11.07
O       9.85      10.10       4.72
O       9.71      11.36      10.85
O       8.07       8.76       5.17
O       8.15       6.86       7.62
O       9.93      12.63       6.43
O      12.36       9.06       8.70
O       6.78      10.75       9.59
O      12.28      10.26       6.75
O       6.29       9.52       7.73
O       9.91       6.84       9.07
O       8.79      13.00       8.38
