35

Zn       2.79       4.08       8.00
Zn       0.78       4.57       4.65
Zn       3.18       6.44       6.27
Zn       0.77       1.63       6.24
C       4.45       5.71       9.99
C       5.00       2.82       6.24
C       1.59      -1.28       7.22
C      -2.12       3.67       4.18
C       3.31       7.65       3.57
C       1.03       6.77       8.13
C      -0.58       2.10       8.79
C      -0.57       6.29       6.73
C       0.91       3.06      10.10
C      -2.14       1.74       5.25
C       4.72       7.60       8.87
C       1.86       6.41       2.47
C       5.27       4.67       5.05
C       2.31       0.97       3.83
C       2.28       2.89       2.74
N       3.94       5.54       8.77
N       1.47       5.77       7.29
N       0.40       2.60       8.01
N       0.44       5.47       6.43
N       1.32       3.18       8.83
N      -0.87       2.19       5.21
N       4.10       6.71       8.06
N       2.67       0.53       7.88
N       1.63       6.24       3.79
N       4.13       4.77       5.74
N       2.05       1.95       4.72
N       2.03       3.14       4.04
N       3.95       3.64       6.47
N       1.62       0.05       7.11
N       2.53       7.02       4.48
N      -0.86       3.39       4.54
