23

Zn      18.54      12.57       9.81
Zn      16.95      11.52       7.26
Zn      20.16      11.54       7.22
Zn      18.50      14.30       7.10
C      15.98      11.11      10.00
C      18.53       9.43       5.92
C      21.11      11.12       9.99
C      21.08      13.86       5.68
C      18.53      15.53       9.79
C      15.97      13.84       5.69
O      18.55      12.49       7.85
O      16.95      11.71      10.58
O      17.40       9.91       6.24
O      21.27      10.96       8.73
O      15.82      10.95       8.75
O      20.13      11.71      10.57
O      19.69       9.91       6.21
O      21.28      12.65       6.04
O      18.51      15.67       8.52
O      20.09      14.59       6.00
O      18.54      14.43      10.44
O      15.86      12.64       6.09
O      16.92      14.65       5.98
