12

Cu       7.07      14.43      12.07
C       6.63      16.06       9.75
O       7.79      12.72      12.83
N       6.21      15.23      13.97
C       5.56      12.74      10.31
O       8.83      15.27      12.52
C       5.70      14.52      15.00
C       8.68      12.05      12.21
O       6.51      16.05      11.02
C       9.76      15.35      11.65
C       6.48      16.54      14.17
O       5.46      13.47      11.36
