24

N       1.19       7.33      13.93
N      -1.19      10.27      13.93
Zn       1.18       7.35      16.09
Zn      -1.18      10.25      16.09
O       2.14       9.14      16.07
O      -2.14       8.46      16.07
O       0.73      10.90      16.12
O      -0.73       6.70      16.12
C       0.18       6.93      19.06
C      -0.18      10.67      19.06
O      -2.81      11.39      16.21
O       2.81       6.21      16.21
C       2.25       7.87      13.29
C      -2.25       9.73      13.29
C       2.26       7.93      18.91
C      -2.26       9.67      18.91
C       0.22       6.77      13.19
C      -0.22      10.83      13.19
N       1.16       7.44      18.30
C      -1.89       7.23      16.25
C      -2.53      12.61      16.51
C       2.53       4.99      16.51
C       1.89      10.37      16.25
N      -1.16      10.16      18.30
