24

Al      15.29       9.07      17.59
Al      13.45       6.45      17.57
Al      12.10       9.14      17.58
H      17.14      10.30      16.82
O      15.81       7.83      16.14
C      13.49      10.54      15.65
C      15.36       6.78      15.61
O      12.08       6.19      16.29
C      11.41       7.10      15.70
O      14.62      10.22      16.12
O      14.58       5.93      16.19
O      12.37      10.44      16.28
O      11.13       8.25      16.21
O      15.81       7.87      19.03
O      12.15       6.17      18.93
O      12.31      10.37      18.96
O      14.56      10.22      19.00
O      14.65       5.93      18.88
O      11.10       8.17      18.85
O      13.59       8.21      17.57
O      16.85       9.87      17.64
C      13.46      10.52      19.53
C      15.40       6.78      19.51
C      11.40       7.07      19.44
