14

Zn       4.89      15.19       6.80
C       6.00      17.71       7.71
Zn       3.56      16.43       8.63
C       5.54      14.57       9.52
C       2.45      13.91       7.72
O       5.66      14.15       8.32
C       2.90      17.05       5.91
O       2.47      17.14       7.11
O       4.82      15.56       9.90
O       3.93      16.39       5.53
O       6.30      16.65       7.06
O       4.93      17.94       8.37
O       2.36      14.77       8.66
O       3.31      13.88       6.77
