23

Zn       6.19       3.69       8.11
O       6.11       0.61       9.31
Zn       2.97       3.65       8.19
Zn       4.60       2.81       5.56
O       2.84       0.50       9.03
O       1.61       3.95       6.81
Zn       4.55       0.87       8.11
O       6.10       3.85       4.82
O       2.33       2.60       9.75
O       7.38       4.24       6.66
O       7.39       2.49       9.08
C       4.66      -0.12       5.34
C       1.74       3.71       5.57
C       2.21       1.33       9.78
C       7.18       4.18       5.41
C       4.60       5.82       9.32
C       7.09       1.37       9.59
O       4.59       2.75       7.51
O       2.81       3.35       4.97
O       4.41      -0.35       6.57
O       3.51       5.46       8.78
O       4.82       1.01       4.79
O       5.75       5.27       9.19
