23

O       8.21      12.92       1.71
Zn       7.66      11.60       3.05
O      10.36      13.35       2.33
Zn      10.89      11.65       3.14
O       9.37       7.60       4.60
Zn       9.24       8.88       3.12
Zn       9.30      10.76       5.73
O       9.27       8.93       6.46
C       6.67       9.17       1.70
C      11.79       9.25       1.66
C      11.88      12.16       5.89
C       6.72      12.19       5.80
C       9.29      13.61       1.69
C       9.35       7.81       5.86
O       7.66       8.43       2.03
O      10.77       8.54       1.93
O      10.85      11.71       6.50
O       7.71      11.68       6.43
O       9.27      10.72       3.77
O       6.57      12.25       4.54
O      12.08      12.11       4.64
O      12.00      10.46       2.03
O       6.48      10.38       2.05
