24

Al       1.22       0.86       0.57
Al       4.40       0.97       0.10
Al       2.89       3.57       0.15
H      -0.79      -0.23       0.10
C       2.86      -0.69      -1.47
C       4.71       2.93      -1.96
C       0.68       3.07      -1.43
C       3.37      -0.36       2.30
C       5.24       3.18       1.69
C       1.20       3.31       2.33
O       0.42       1.98      -0.84
O       1.79      -0.36      -0.91
O       4.06      -0.43      -1.07
O       5.12       1.84      -1.45
O       4.00       3.82      -1.39
O       1.51       3.97      -1.01
O       0.82       2.15       2.00
O       2.17      -0.14       1.97
O       4.41      -0.19       1.55
O       5.54       2.05       1.16
O       4.38       4.00       1.23
O       1.88       4.13       1.61
O       2.86       1.81       0.27
O      -0.25      -0.03       0.87
