23

O      19.77       9.98       9.94
O      16.29      12.87       5.96
Zn      17.99      10.53       9.29
Zn      16.39       9.66       6.68
Zn      19.60       9.61       6.70
Zn      18.04      12.40       6.74
O      15.55      10.81       5.32
O      16.89       7.93       5.88
O      19.07       8.30       5.33
O      20.86      10.91       5.92
O      19.40      12.56       5.33
O      18.01      10.54       7.34
C      15.50       9.01       9.38
C      17.98      13.44       9.44
C      20.52       9.09       9.42
C      15.54      12.08       5.28
C      17.98       7.64       5.28
C      20.53      11.96       5.27
O      15.16       9.31       8.19
O      16.64       9.25       9.92
O      18.43      13.59       8.25
O      17.58      12.34       9.95
O      20.47       8.67       8.22
