15

Cu       5.38      16.33       3.36
Cu       3.02      16.42       5.48
Cu       5.29      18.68       5.48
N       2.98      15.13       4.16
N       4.04      15.06       3.28
N       6.65      17.66       3.28
N       6.58      18.72       4.16
C       3.74      14.14       2.33
N       3.96      18.72       6.75
C       2.04      14.26       3.76
C       7.45      19.66       3.75
N       2.98      17.75       6.76
C       7.56      17.96       2.33
C       2.07      18.07       7.69
C       3.64      19.64       7.68
