20

Zn       8.12       6.96       9.04
Zn       8.17       9.76       9.03
C       8.00       8.39       6.42
C       5.57       8.38       9.04
C       7.02       4.28       8.40
C       7.47      12.43       8.01
C       9.07       4.19       9.50
C       8.83      12.54       9.89
C       8.09       8.40      11.66
C      10.71       8.28       9.04
N       8.05       4.91       8.98
N       8.16      11.81       8.97
O       7.96       7.27       7.00
O       8.12       9.54       6.93
O       6.09       7.22       9.07
O       6.15       9.50       9.05
O       8.08       7.27      11.09
O       8.15       9.55      11.14
O      10.14       7.14       9.04
O      10.16       9.42       9.05
