10

Al       3.99      29.02      25.13
O       5.05      27.44      24.95
O       5.05      29.97      23.85
O       5.05      29.66      26.60
O       2.93      28.07      23.85
O       2.93      28.39      26.59
O       2.93      30.61      24.95
C       5.99      27.24      24.10
C       5.99      30.80      24.10
C       5.99      29.02      27.18
