18

Al       5.15       4.07       4.83
O       4.53       2.71       6.06
Al       1.78       4.19       4.85
O       7.97       5.81       3.94
O       5.69       2.69       3.56
O       2.42       5.30       6.26
O       5.76       5.42       3.61
O       3.47       4.18       4.01
O       6.82       4.03       5.66
H       3.40       3.73       3.15
O       4.66       5.46       6.05
H       6.84       3.73       6.58
C       3.56       5.80       6.56
C       6.84       2.58       3.01
C       3.38       2.20       6.30
C       6.83       6.09       3.46
O       2.27       2.60       5.83
O       7.88       3.23       3.32
