10

Al      -0.34      -4.50       7.89
C       1.64      -2.74       6.83
C       1.62      -4.48       9.94
O       0.70      -6.11       7.70
O       0.70      -3.55       6.58
O       0.70      -3.85       9.34
O      -1.38      -5.46       6.62
O      -1.38      -5.12       9.38
O      -1.38      -2.91       7.69
C       1.64      -6.29       6.87
