54

Zr      23.47      12.62      15.35
Zr      19.94       9.08      15.35
Zr      19.94      12.62      15.35
Zr      23.47       9.08      15.35
Zr      21.70      10.85      17.85
Zr      21.70      10.85      12.85
H      21.70      13.63      17.31
H      21.70       8.07      17.31
H      18.92      10.85      13.38
H      24.49      10.85      13.38
O      24.26      13.35      17.35
O      19.15       8.35      17.35
O      19.20       8.30      13.34
O      24.20      13.41      13.34
O      20.59      14.80      15.31
O      25.65       9.74      15.39
O      22.81       6.91      15.31
O      17.76      11.96      15.39
O      20.26      12.24      18.92
O      20.31      12.30      11.77
O      23.09       9.40      11.77
O      23.15       9.46      18.92
O      19.24      13.41      13.42
O      24.17       8.29      13.42
O      24.26       8.39      17.27
O      19.14      13.31      17.27
O      22.86      14.72      15.28
O      17.83       9.70      15.42
O      20.55       6.98      15.28
O      25.57      12.01      15.42
C      23.97      13.04      18.56
C      19.43       8.67      18.56
C      19.52       8.58      12.14
C      23.89      13.12      12.14
O      23.69      10.85      13.94
C      21.75      15.35      15.29
O      21.70       8.86      16.75
C      21.66       6.35      15.29
C      26.20      10.89      15.40
O      21.70      12.84      16.75
O      19.71      10.85      13.94
O      23.17      10.85      16.38
O      20.24      10.85      16.38
O      21.70      12.32      14.31
C      17.21      10.81      15.41
C      19.48      13.16      12.20
C      19.39      13.08      18.50
O      21.70       9.38      14.31
C      23.93       8.54      12.20
C      24.01       8.62      18.50
O      23.01      12.26      11.79
O      23.11      12.16      18.90
O      20.30       9.54      18.90
O      20.39       9.44      11.79
