10

Al       0.01      25.23       8.74
O      -1.04      24.59      10.21
O      -1.04      24.27       7.45
O       1.07      23.63       8.58
O      -1.04      26.82       8.55
O       1.07      26.16       7.43
O       1.07      25.89      10.20
C      -1.97      23.44       7.72
C      -1.97      25.24      10.79
C      -1.97      27.00       7.70
