15

C      18.83       4.36      12.81
C      18.11       2.33      12.31
C      24.64       4.94       9.26
Cu      21.16       4.50      11.06
C      23.39       6.32      10.46
Cu      20.07       1.59      10.27
Cu      22.90       2.60       9.24
C      22.73       0.08       7.77
C      20.70      -0.58       8.38
N      19.15       2.61      11.50
N      19.60       3.87      11.81
N      22.76       5.13      10.39
N      23.54       4.28       9.65
N      22.26       0.95       8.68
N      21.00       0.55       9.06
