20

N       5.93       0.01       9.99
Zn       5.93       0.00       7.94
Zn       5.93       0.00       5.16
N       5.93       0.00       3.11
O       6.02      -2.03       5.47
O       6.06      -2.04       7.74
O       5.84       2.04       5.47
O       5.81       2.05       7.73
O       7.97       0.10       7.63
O       7.98       0.06       5.36
O       3.90      -0.09       7.63
O       3.88      -0.06       5.36
C       6.48      -1.01      10.68
C       6.08      -2.61       6.60
C       5.38       1.02      10.67
C       5.78       2.62       6.60
C       6.99      -0.45       2.42
C       8.55       0.09       6.50
C       4.87       0.46       2.42
C       3.31      -0.09       6.50
