23

Zn       0.69       7.45      30.73
Zn      -1.51       5.26      31.63
C      -0.23       2.60      31.62
Zn       0.79       4.46      29.57
C      -0.65       9.22      28.77
Zn      -1.53       6.41      28.63
C      -0.34       4.38      26.85
C      -0.59       7.44      33.41
O       0.22       7.97      32.58
O      -1.21       6.32      33.25
C      -4.01       5.84      30.17
O      -3.42       5.37      31.21
O      -3.43       6.26      29.11
O      -1.10       3.40      32.11
O       0.54       2.83      30.64
O       2.62       7.10      30.61
O       2.66       4.99      29.76
O       0.51       3.95      27.70
O      -1.21       5.29      27.05
O      -1.24       8.29      28.12
O       0.20       9.06      29.71
O      -0.40       5.91      30.15
C       3.22       6.05      30.19
