11

Br       3.67       8.28      21.55
Cu       6.05       8.32      22.14
N       6.87       6.68      21.36
C       8.31      10.02      21.53
C       5.35       9.73      24.54
N       6.05       8.66      24.10
C       8.22       6.55      21.39
C       6.69       7.90      25.02
C       6.41      10.78      20.43
N       6.98       9.90      21.29
C       6.17       5.78      20.63
