15

Cu      21.47       3.85      10.41
Cu      19.52       1.40       9.88
Cu      21.99       1.94       7.93
N      19.21       2.50      11.33
N      20.06       3.57      11.56
N      22.90       4.18       9.30
N      23.14       3.35       8.22
N      20.87       0.52       7.61
N      19.80       0.27       8.45
C      19.63       4.20      12.67
C      18.27       2.50      12.28
C      24.24       3.81       7.58
C      23.84       5.14       9.31
C      19.16      -0.83       8.01
C      20.87      -0.43       6.65
