20

O       4.09       7.74      12.05
Mn       5.71       8.92      11.45
O       6.86       7.49      12.45
Mn       7.20      11.39      13.37
O       7.41      10.32      11.44
O       4.50      10.41      10.50
O       3.85      12.57      12.78
O       6.05      12.82      12.38
C       7.03       7.06       9.31
C       5.21       8.20       8.43
C       4.63       9.48      14.18
C       3.12       7.40      12.78
C       5.89      13.25      15.52
C       7.70      12.11      16.40
C       8.28      10.83      10.65
C       4.83      12.91      12.05
N       6.07       7.99       9.45
N       6.85      12.32      15.37
O       5.50       9.99      13.39
O       8.42       9.90      14.33
