20

C      -0.62       9.67       3.50
Cu      -3.21       9.91       2.04
N      -6.20      11.60      -0.69
Cu      -5.43       8.63       2.05
Cu      -3.66       8.19       0.25
Cu      -4.98      10.33       0.23
C      -5.93      12.82      -1.13
C      -2.75       5.69      -1.11
C      -1.11       7.10      -0.90
C      -6.93       7.10       4.18
C      -8.02       8.86       3.51
C      -7.56      11.42      -0.81
I      -5.31      11.38       2.73
I      -3.32       7.17       2.76
I      -6.16       7.94      -0.56
I      -2.49      10.57      -0.59
N      -1.69      10.41       3.23
N      -6.93       8.15       3.27
N      -2.46       6.91      -0.69
C      -1.65      11.49       4.09
