20

Zn       6.71       9.06      16.59
Zn       9.49       9.05      16.62
N      11.54       9.01      16.52
N       4.66       9.08      16.64
O       6.85       7.00      16.69
O       9.11       7.02      16.49
O       9.33       8.90      18.66
O       7.08       9.14      18.60
O       9.20      11.10      16.73
O       6.95      11.10      16.45
O       7.00       8.95      14.56
O       9.25       9.21      14.58
C       7.98       6.44      16.59
C       8.19       9.01      19.21
C       8.07      11.67      16.58
C       8.14       9.07      13.99
C      12.24       8.12      17.24
C      12.18       9.91      15.77
C       4.01       8.29      17.51
C       3.96       9.84      15.78
