23

Zn       7.55      12.41       1.55
Zn       7.82      14.07      -1.20
Zn       9.40      14.99       1.44
Zn       6.19      15.33       1.20
C       8.50      11.28      -0.99
C       9.34      13.15       3.75
C       4.66      12.91       1.86
C      10.65      14.81      -1.12
C       5.97      16.24      -1.58
C       7.91      17.37       2.16
O       7.73      14.19       0.75
O       8.04      12.20      -1.74
O       8.39      11.17       0.28
O       9.84      14.17       3.18
O       8.51      12.32       3.27
O       4.69      14.16       1.63
O       5.64      12.10       1.94
O      10.85      14.69       0.13
O       9.53      14.95      -1.71
O       5.76      16.50      -0.35
O       6.47      15.18      -2.07
O       9.00      16.92       1.69
O       6.86      16.71       2.45
