18

O      -1.83       8.37       7.57
O       0.47      12.01       5.67
O      -2.49       9.42       4.73
Mg      -0.98      10.67       5.29
Mg      -5.55       8.89       4.82
C      -5.24       7.01       7.21
Mg      -3.27       9.37       6.60
C      -0.66       9.55       2.47
C      -2.95      12.38       7.03
O      -0.21       9.03       6.18
C      -2.94       9.01       3.59
C      -0.65       8.25       7.11
C      -5.22      11.68       6.01
O      -4.78      10.48       5.79
O      -0.06       9.83       3.64
O      -4.64       7.88       6.38
O      -2.35      11.22       6.69
O      -4.11       8.55       3.47
