18

Al       6.14       5.36       5.53
O       3.30       6.59       4.18
Al       2.74       5.35       5.56
O       4.44       4.56       5.53
O       2.17       4.12       6.92
H       4.44       3.62       5.30
O       2.19       4.09       4.20
H       7.85       7.12       5.56
O       7.84       6.15       5.53
C       4.43       6.90       3.69
C       4.45       6.99       7.30
C       7.82       3.76       7.34
C       7.85       3.72       3.78
O       3.30       6.60       6.92
O       5.59       6.57       4.12
O       6.71       4.10       4.20
O       5.58       6.63       6.85
O       6.69       4.14       6.91
