11

C       0.18      13.43      13.41
Zn       0.70      15.96      12.61
O       1.21      14.23      13.34
C      -1.41      15.67      10.48
C       3.25      16.91      12.01
C      -1.70      16.40      14.38
C      -0.24      18.20      14.38
N      -0.31      16.34      10.88
C       0.03      17.46      10.22
N      -0.54      16.95      13.96
O       2.17      17.26      12.66
