19

Cr      -1.10       2.21       6.88
N      -0.76       1.27       5.04
P       1.59       3.70       7.73
O       0.55       3.22       6.66
P       0.79      -0.16       8.05
P      -3.70       0.30       7.80
H      -0.78       3.73       8.95
H      -2.33       3.04       9.00
H      -1.26       4.28       5.38
H      -1.19       0.33       5.08
H       0.25       1.14       4.90
O      -0.32       0.89       8.08
O      -2.89       1.39       7.09
C      -2.23       4.73       7.79
C      -2.96       4.34       6.51
C      -2.49       2.90       4.47
C      -1.32       2.09       3.93
N      -1.65       3.51       8.41
N      -1.99       3.61       5.67
