23

C      11.75      10.17      17.29
Zn      12.33       9.24      14.54
Zn      15.27       7.96      14.54
Zn      12.70       6.06      14.54
O      12.52       9.34      17.88
O      11.52      10.22      16.03
O      13.35      10.43      13.34
O      10.84       8.60      13.43
Zn      13.43       7.76      17.16
O      15.26       7.75      17.88
O      16.52       8.18      16.03
O      15.79       6.49      13.34
O      15.46       9.57      13.43
C      16.37       8.01      17.29
O      12.52       6.17      17.88
O      12.26       4.86      16.03
O      11.16       6.35      13.34
O      14.00       5.09      13.43
C      12.19       5.09      17.29
C      14.58      10.38      12.98
O      13.43       7.76      15.20
C      15.13       5.45      12.98
C      10.59       7.43      12.98
