23

Zn      16.20      16.35      22.46
Zn      17.77      15.45      25.11
Zn      16.01      18.15      25.11
Zn      14.54      15.28      24.95
C      18.83      14.98      22.40
C      18.53      17.83      26.66
C      16.12      19.31      22.40
C      13.42      17.62      26.40
C      13.73      14.79      22.15
C      16.15      13.29      26.40
O      16.13      16.31      24.43
O      17.85      15.53      21.80
O      18.79      16.62      26.31
O      16.04      19.50      23.67
O      18.97      14.85      23.67
O      16.20      18.19      21.80
O      17.53      18.52      26.29
O      14.36      18.45      26.14
O      13.51      14.64      23.40
O      13.34      16.40      26.02
O      14.71      15.41      21.62
O      17.27      13.84      26.12
O      14.99      13.70      26.04
