42

Eu       4.75      15.48       0.53
N       7.41      12.04      -1.08
Eu       8.11      17.59      -0.53
N       5.45      21.03       1.08
O       6.03      16.92      -1.46
O       6.83      16.15       1.46
O       4.01      17.39      -0.73
O       2.42      15.68       0.73
O       3.90      14.58      -1.52
O       8.95      18.49       1.52
O       8.49      15.78      -2.07
O       4.37      17.29       2.07
O       8.79      18.90      -2.20
O       4.07      14.17       2.20
O       6.31      13.73       0.01
H       5.65      12.90      -1.73
H       7.21      20.18       1.73
O       6.54      19.34      -0.01
H       6.55      11.30      -2.85
H       6.30      21.77       2.85
H       7.40      10.08      -1.85
H       5.46      22.99       1.85
H       8.33      11.27      -2.81
H       4.52      21.80       2.81
H       8.34      12.70       0.66
H       4.51      20.37      -0.66
H       9.45      12.18      -0.64
H       3.41      20.89       0.64
H       8.55      10.96       0.31
H       4.31      22.11      -0.31
C       4.90      17.52      -1.65
C       7.95      15.55       1.65
C       9.78      18.94      -3.05
C       3.08      14.13       3.05
C       2.91      14.83      -2.28
C       3.52      18.24       2.28
C       6.41      12.92      -0.94
C       6.45      20.15       0.94
C       7.43      11.12      -2.21
C       5.43      21.95       2.21
C       8.50      11.96      -0.13
C       4.35      21.11       0.13
