23

Zn       8.69       8.74       9.15
Zn       8.90       6.53       6.87
Zn       6.41       8.72       6.94
Zn       6.53       6.27       8.93
C       7.97       3.94       7.82
C       7.39      11.20       8.16
C      11.27       7.79       8.09
C       4.03       7.22       7.73
C       7.81       7.88       4.45
C       7.42       7.43      11.49
O       7.64       7.57       7.95
O       8.66       7.10       4.98
O       6.60       6.69      10.84
O       6.90       8.57       5.02
O       8.27       8.25      10.99
O      10.62       8.64       8.79
O       4.68       6.24       8.23
O       8.63       4.58       6.94
O       6.46      10.59       7.52
O       7.17       4.43       8.68
O       8.37      10.65       8.77
O      10.76       6.85       7.39
O       4.53       8.29       7.24
