14

C       5.10      -2.50       7.86
O       6.93      -4.95       6.45
Cu       4.07      -4.06       5.75
C       4.26      -6.85       5.38
O       4.95      -6.93       6.45
C       2.51      -5.10       7.86
Cu       5.30      -5.29       7.49
O       5.55      -3.57       8.40
O       4.41      -2.43       6.79
C       6.86      -4.26       5.38
O       5.79      -3.81       4.84
O       3.81      -5.79       4.84
O       2.43      -4.41       6.79
O       3.58      -5.55       8.40
