23

Zn      18.40       7.23       8.83
Zn      16.86       4.42       8.64
Zn      18.64       5.42       6.16
Zn      20.07       4.50       8.87
O      18.48       5.40       8.13
O      16.81       7.47       9.98
C      15.81       6.70      10.17
C      18.56       8.35       6.15
O      15.87       3.80       7.06
O      18.19       8.53       7.36
C      20.85       6.88      10.41
O      15.65       5.51       9.73
C      18.45       2.33      10.01
O      19.03       7.28       5.64
O      20.00       7.69       9.88
O      17.31       2.82       9.69
O      17.03       4.70       5.33
O      20.13       4.28       5.55
O      20.89       5.62      10.24
O      21.41       4.26       7.44
O      19.60       2.79       9.71
C      16.08       4.01       5.82
C      21.20       4.02       6.22
