20

Zn       3.92       5.90       7.64
Zn       6.70       5.82       7.54
C       5.31       8.45       7.82
C       5.37       5.63      10.21
C      -0.28       6.33       8.57
C       5.30       3.26       7.34
C      -0.24       5.49       6.48
C       1.15       5.49       6.50
C       1.11       6.31       8.60
C       5.26       6.06       4.98
N      -0.99       5.91       7.53
N       1.86       5.89       7.59
O       4.15       7.93       7.93
O       6.42       7.84       7.78
O       4.22       5.68       9.67
O       6.48       5.53       9.59
O       4.18       3.87       7.39
O       6.45       3.80       7.28
O       4.16       6.18       5.60
O       6.42       5.99       5.51
