23

O       6.60       4.84       5.72
O      10.89       5.86      10.26
Zn       7.65       6.03       6.90
Zn      10.91       5.98       6.94
Zn       9.26       3.27       6.94
Zn       9.26       5.06       9.52
O      11.92       6.75       8.44
O      12.08       4.74       5.96
O      10.72       2.94       5.67
O       9.50       1.98       8.41
O       9.06       3.24      10.25
O       9.26       5.11       7.56
C       9.32       8.05       5.52
C       6.69       6.54       9.63
C       6.71       3.59       5.52
C      11.76       6.60       9.70
C      11.82       3.57       5.53
C       9.23       2.13       9.65
O      10.44       7.49       5.77
O       8.17       7.62       5.86
O       7.77       6.14      10.20
O       6.47       6.58       8.38
O       7.57       2.81       6.08
