10

Al       0.06      12.91       7.46
O      -0.99      14.52       7.33
O      -0.99      12.00       6.13
O       1.11      11.31       7.27
O      -0.99      12.22       8.91
C      -1.90      12.88       9.52
C      -1.90      11.15       6.39
C      -1.90      14.72       6.46
O       1.11      13.87       6.16
O       1.11      13.55       8.93
