23

Zn       2.60       5.85       5.49
Zn       5.04       3.84       5.33
Zn       2.71       3.36       7.44
Zn       4.72       5.84       7.89
C       4.15       1.17       6.13
C       7.32       5.10       6.71
C       3.43       8.26       6.86
C       3.49       4.38      10.10
C       3.74       4.92       2.97
C       0.22       4.44       6.41
O       3.80       4.73       6.56
O       6.86       4.14       6.02
O       0.86       3.39       6.76
O       3.50       1.58       7.15
O       6.65       5.92       7.44
O       3.97       7.67       7.85
O       2.70       3.72       9.36
O       4.85       4.55       3.50
O       2.69       5.30       3.60
O       4.44       5.16       9.72
O       4.68       1.90       5.22
O       0.74       5.57       6.11
O       3.08       7.73       5.75
