23

Zn      24.09       7.10      10.67
Zn      20.91       7.05      10.68
Zn      22.46       9.84      10.74
Zn      22.51       8.00      13.33
O      22.48       7.98      11.36
O      21.00       6.94      14.03
O      25.33       8.36       9.83
O      21.39       5.47       9.61
O      22.60      11.10      12.22
O      19.81       8.22       9.53
O      24.26       7.35      13.95
O      20.83      10.25       9.74
O      24.79       6.04      12.18
O      23.64       5.69       9.36
O      22.20       9.81      14.05
O      19.78       6.44      12.17
O      23.98      10.18       9.57
C      19.97       6.48      13.43
C      25.07       9.54       9.38
C      22.53       5.10       9.17
C      22.34      10.93      13.46
C      19.92       9.47       9.29
C      24.92       6.41      13.40
