70

Tm       8.04       1.26       3.95
O       7.46      -3.68       7.24
Tm       6.55       6.49       3.90
O       8.30       6.33       2.37
C       5.82       3.36       2.69
Tm       9.86      -7.87       5.10
Tm       8.35      -2.71       5.14
H      10.55       1.65       1.66
H       8.38       6.97      -1.34
H      10.06       6.40      -1.56
H       9.74       8.10      -1.15
C       7.72      -1.57       2.11
H       7.41       6.63       0.54
C       8.99       4.41       4.81
H      11.44       6.04       0.54
H      10.65       6.37       2.12
H      11.21       7.72       1.09
C       3.37       6.95       4.89
C       7.68       9.77       4.10
C       7.36      -5.87       4.25
C       4.75       8.32       2.07
C       6.31       7.94       6.97
C      10.91       2.00      -0.85
C       8.55       2.81      -0.85
H       8.02      -8.65       6.97
N       9.69       2.30      -0.11
N       9.46       6.74       0.44
H       8.57      -7.36       7.69
O       6.42      -0.17       4.59
H       7.47      -2.80       7.67
O       6.06      -2.28       5.24
H       6.53      -3.85       7.01
O      10.31       0.75       3.79
H      11.29       2.90      -1.35
O       9.97      -1.30       4.62
H      10.72       1.24      -1.61
O       8.43       0.92       6.18
H      11.68       1.63      -0.16
O       8.27      -1.23       6.87
H       8.31       2.12      -1.68
H       8.79       3.79      -1.28
O      10.32      -6.05       6.33
H       7.70       2.90      -0.18
O      10.10      -3.88       5.80
O       6.25       2.46       3.49
C       9.63       2.07       1.21
O       5.97       4.60       2.84
C       5.64      -1.13       4.88
C       9.41       7.07      -0.98
O       8.03      -2.47       2.96
O       7.90      -0.32       2.27
O       8.94       3.17       4.63
C       8.33       6.56       1.14
O       7.98       5.17       4.95
O       3.45       8.12       5.40
O       4.33       6.34       4.32
O       7.57       8.51       3.99
C      10.77       6.72       1.09
C      10.74      -0.35       4.26
O       6.71      10.57       4.32
O       7.46      -4.66       4.58
O       8.36      -6.65       4.05
C       8.42       0.03       7.08
O       5.57       7.36       1.91
O       4.71       9.03       3.12
O       6.38       7.06       6.07
O       5.80       9.10       6.82
O       8.62       2.30       1.92
O       8.17      -7.69       6.87
C      10.40      -4.82       6.61
