18

Al       0.91       1.33      20.60
O       1.41       2.77      19.39
Al       4.22       1.25      20.65
O      -1.85      -0.05      21.93
O       1.48       0.07      19.30
C       2.59      -0.46      18.98
O       4.71       2.69      21.88
C      -0.79       3.06      22.30
O       0.40      -0.10      21.75
O       3.67       2.53      19.31
O       2.56       1.34      21.45
O      -0.77       1.35      19.82
C       2.57       3.08      18.97
H       2.56       1.86      22.27
C      -0.70      -0.50      22.23
H      -0.82       1.86      18.99
O       3.72      -0.20      19.49
O       0.35       2.63      21.93
