118

Eu      13.36       7.71      12.10
Eu      13.36      15.42       9.72
Eu      13.36       7.71      19.37
Eu       6.68       3.86       2.45
Cu      13.36      11.57      14.55
Cu      16.70       5.78      14.55
Cu      10.02       5.78      14.55
Cu      13.36      11.57       7.27
Cu      10.02       5.78       7.27
Cu      16.70       5.78       7.27
H      15.48      12.01      15.75
H      16.01       3.72      15.75
H       8.57       7.40      15.75
H      15.48      11.13       6.07
H      10.70       3.72       8.48
H      18.14       7.40       8.48
H      11.23      11.13      13.34
H      17.38       7.84      13.34
H      11.46       4.16      13.34
H      11.23      12.01       8.48
H       9.34       7.84       6.07
H      15.25       4.16       6.07
C      15.29       9.45      13.57
C      13.89       5.16      13.57
C      10.88       8.52      13.57
C      15.29      13.69       8.25
C      12.82       5.16       6.29
C      15.83       8.52       6.29
C      11.42      13.69      15.53
C      19.50       6.40      15.53
C       9.15       3.05      15.53
C      11.42       9.45       6.29
C       7.21       6.40       8.25
C      17.56       3.05       8.25
C      16.02      10.47      14.45
C      14.41       4.03      14.45
C       9.64       8.64      14.45
C      16.02      12.67       7.37
C      12.30       4.03       7.18
C      17.07       8.64       7.18
C      10.70      12.67      14.64
C      18.98       7.54      14.64
C      10.39       2.93      14.64
C      10.70      10.47       7.18
C       7.73       7.54       7.37
C      16.32       2.93       7.37
C      14.83      10.23      16.61
C      14.80       5.17      16.61
C      10.44       7.73      16.61
C      14.83      12.90       5.21
C      11.91       5.17       9.33
C      16.28       7.73       9.33
C      11.88      12.90      12.49
C      18.59       6.39      12.49
C       9.60       3.84      12.49
C      11.88      10.23       9.33
C       8.13       6.39       5.21
C      17.11       3.84       5.21
C      13.34      10.11      16.88
C      15.44       6.53      16.88
C      11.29       6.50      16.88
C      13.34      13.02       4.94
C      11.27       6.53       9.61
C      15.43       6.50       9.61
C      13.37      13.02      12.21
C      17.95       5.04      12.21
C       8.75       5.07      12.21
C      13.37      10.11       9.61
C       8.77       5.04       4.94
C      17.96       5.07       4.94
N      15.12      11.09      15.44
N      15.39       4.50      15.44
N       9.55       7.56      15.44
N      15.12      12.05       6.38
N      11.32       4.50       8.16
N      17.16       7.55       8.16
N      11.59      12.05      13.66
N      18.00       7.07      13.66
N      10.48       4.01      13.66
N      11.59      11.09       8.16
N       8.72       7.07       6.38
N      16.23       4.01       6.38
O      14.02       9.37      13.68
O      14.46       6.31      13.68
O      11.59       7.46      13.68
O      14.02      13.76       8.14
O      12.25       6.31       6.41
O      15.13       7.46       6.41
O      12.69      13.76      15.41
O      18.93       5.26      15.41
O       8.45       4.11      15.41
O      12.69       9.37       6.41
O       7.78       5.26       8.14
O      18.27       4.11       8.14
O      12.51      10.67      16.08
O      16.34       6.96      16.08
O      11.22       5.50      16.08
O      12.51      12.47       5.74
O      10.37       6.96       8.81
O      15.50       5.50       8.81
O      14.20      12.47      13.01
O      17.05       4.60      13.01
O       8.82       6.07      13.01
O      14.20      10.67       8.81
O       9.66       4.60       5.74
O      17.90       6.07       5.74
O      12.97       9.45      17.89
O      15.05       7.18      17.89
O      12.05       6.51      17.89
O      12.97      13.69       3.93
O      11.66       7.18      10.62
O      14.66       6.51      10.62
O      13.75      13.69      11.20
O      18.34       4.39      11.20
O       7.99       5.06      11.20
O      13.75       9.45      10.62
O       8.38       4.39       3.93
O      18.73       5.06       3.93
