23

Zn      10.54       4.29       3.12
Zn       8.94       7.09       3.07
Zn       8.96       5.27       5.74
Zn       7.38       4.31       3.13
O       8.97       5.26       3.78
O       6.26       5.46       2.00
O      11.63       3.60       4.59
O      10.52       7.46       1.94
O       7.40       4.32       6.47
O       8.89       8.38       4.55
O       7.82       2.74       2.04
O       8.97       7.10       6.45
O      10.10       2.78       1.96
O      11.67       5.49       2.05
O       6.27       3.66       4.60
O       7.36       7.46       1.95
O      10.55       4.35       6.46
C       6.40       6.67       1.64
C      11.49       3.73       5.85
C      11.50       6.69       1.66
C       6.43       3.76       5.86
C       8.92       8.22       5.82
C       8.95       2.29       1.66
