54

Zr      -7.70      10.05      14.24
Zr     -11.19      12.11      17.15
Zr      -7.66      12.09      17.13
Zr     -11.23      10.07      14.26
Zr      -9.45       9.04      17.13
Zr      -9.45      13.12      14.25
H      -6.66       9.46      16.81
H     -12.23       9.48      16.84
H      -9.43      14.29      16.83
H      -9.47      11.08      12.28
O      -7.01       8.02      14.68
O     -11.89      11.01      18.91
O     -11.98      14.08      16.62
O      -6.91      11.20      12.55
O      -5.54      11.78      16.59
O     -10.65       8.79      12.56
O     -13.35      10.46      14.73
O      -8.25      13.26      18.89
O      -8.14       8.97      18.89
O      -8.04      14.73      14.70
O     -10.85      13.24      12.58
O     -10.75       7.36      16.60
O      -6.87      14.15      16.55
O     -12.03      11.30      12.51
O     -11.95       7.96      14.77
O      -6.94      10.90      18.94
O      -5.55      10.47      14.74
O     -10.51      13.33      18.95
O     -13.34      11.77      16.59
O      -8.38       8.76      12.48
O      -8.01      13.19      12.50
O      -8.07       7.32      16.56
O     -10.83       9.00      18.94
O     -10.89      14.80      14.77
O      -9.47      11.08      13.25
O      -9.43      13.38      16.51
O     -11.44       9.93      16.51
C     -11.66       9.85      19.40
C     -11.74      14.94      15.71
C      -7.24       7.17      15.60
O     -10.91      11.93      15.10
O      -7.46       9.92      16.50
O      -9.43      11.08      17.49
O      -9.46       9.38      15.09
C      -7.15      12.35      12.04
O      -7.98      11.92      15.09
C      -4.96      11.13      15.66
C      -9.54       8.43      12.05
C      -9.36      13.63      19.40
C      -7.18      14.96      15.61
C      -7.27       9.75      19.40
C     -13.94      11.12      15.66
C     -11.72      12.46      12.06
C     -11.63       7.14      15.70
