54

Zr      18.68       1.95      12.34
Zr      22.27       4.01      15.13
Zr      22.21       1.90      12.29
Zr      18.76       4.04      15.18
Zr      20.48       4.99      12.23
Zr      20.48       0.94      15.22
H      20.43       2.88      10.32
H      20.54       6.20      14.81
H      23.27       1.36      14.86
H      17.69       1.42      14.95
C      18.15       4.27      10.11
C      22.80       6.81      13.54
C      22.67       1.75      17.45
C      18.28      -0.95      13.79
C      20.33       0.24      10.17
C      16.00       3.10      13.72
C      20.61       5.60      17.39
C      24.96       3.04      13.63
C      22.79       4.15      10.05
C      22.67      -0.97      13.69
C      18.33       1.84      17.53
C      18.19       6.84      13.66
O      17.86       3.14      10.63
O      23.09       6.01      14.49
O      22.99       2.87      16.93
O      17.95      -0.10      12.89
O      21.48       0.54      10.65
O      16.58       3.74      14.66
O      19.46       5.22      16.95
O      24.40       2.33      12.73
O      21.93       5.01      10.47
O      21.83      -0.81      14.64
O      19.14       0.98      17.05
O      19.05       6.67      12.73
O      22.94      -0.13      12.77
O      18.03       2.97      17.01
O      17.95       6.04      14.63
O      22.99       2.99      10.54
O      19.22       0.67      10.67
O      24.36       3.67      14.58
O      21.72       5.23      16.84
O      16.56       2.38      12.83
O      19.12      -0.76      14.73
O      19.04       5.09      10.53
O      21.91       6.62      12.63
O      21.84       0.91      16.97
O      18.49       1.86      14.61
O      22.47       1.80      14.54
O      20.51       5.29      14.49
O      20.44       2.93      11.29
O      21.94       3.79      13.08
O      19.02       3.83      13.14
O      20.51       2.99      15.52
O      20.45       1.26      13.18
