18

Fe       5.69      21.57      13.50
Fe       7.92      22.89      12.65
Fe       3.47      21.49      11.94
O       9.28      23.07      11.01
O       7.04      22.90      14.48
O       4.82      19.98      12.60
O       9.66      22.59      13.63
O       5.20      22.49      11.70
O       7.43      20.87      12.75
O       4.40      21.69      15.08
O       6.63      24.19      11.76
O       2.17      20.07      11.25
C       7.60      22.77      15.69
C       9.83      24.18      10.51
C       5.37      19.00      11.88
C       3.26      22.21      14.86
C       5.49      23.74      11.42
C       7.72      20.00      11.82
