18

Zn       5.89       8.02       9.60
Zn       8.71       8.00       9.60
N       3.86       8.04       9.59
N      10.74       7.99       9.57
O       6.13       5.99       9.57
O       8.42       5.96       9.67
O       6.16       8.06       7.56
O       8.43       8.00       7.57
O       6.17      10.07       9.62
O       8.45      10.06       9.58
O       6.18       8.02      11.63
O       8.45       8.06      11.64
C       7.27       5.41       9.63
C       7.30       8.09       6.99
C       7.31      10.63       9.62
C       7.31       8.10      12.21
C       2.70       8.06       9.49
C      11.90       8.02       9.54
