30

In       2.60       9.69       1.15
O       3.26       9.60      -0.97
C       5.47      11.07       0.63
C       4.56       8.14       2.67
C       0.70      11.67      -0.06
C       3.74       8.75      -1.79
H       4.86      10.88      -4.03
C       4.17      10.65      -3.21
H       4.44      11.21      -2.30
C       4.71       8.34      -4.02
H       3.16      10.95      -3.50
C       3.74       7.27      -1.54
H       5.47       8.88      -4.60
N       2.18      11.20       2.88
H       3.88       8.07      -4.69
N       4.31      11.24       1.28
H       5.17       7.43      -3.61
N       0.75       7.49       1.52
H       3.20       6.76      -2.35
N       4.25       9.22      -2.94
H       3.26       7.06      -0.59
H       4.77       6.89      -1.53
O       4.08       8.15       1.46
C       1.19      11.03       3.75
O       0.77      10.43       0.34
O       1.26       7.51       0.37
O       1.16       8.39       2.38
C       2.94      12.32       2.92
O      -0.11       6.66       1.87
C       4.13      12.33       2.06
