23

Zn      18.34       7.29       8.84
Zn      16.86       4.41       8.67
Zn      18.56       5.46       6.17
Zn      20.04       4.58       8.85
C      15.74       6.75      10.12
C      16.06       3.91       5.87
C      18.46       8.43       6.12
C      21.16       4.10       6.15
C      20.84       6.96      10.39
C      18.46       2.42      10.13
O      18.44       5.45       8.13
O      16.69       7.58       9.87
O      15.84       3.77       7.12
O      18.54       7.32       5.52
O      15.66       5.54       9.74
O      18.38       8.62       7.39
O      17.05       4.52       5.34
O      20.21       4.63       5.48
O      21.07       5.76      10.04
O      21.25       4.00       7.42
O      19.85       7.68      10.03
O      17.31       2.83       9.75
O      19.58       2.97       9.87
