20

Zn      15.32      11.93      23.72
Zn      17.51      11.93      21.88
O      16.43      10.48      24.65
O      16.40      10.48      20.95
O      18.20      10.51      23.22
O      14.63      10.51      22.37
O      14.48      13.36      22.51
C      15.09      13.73      21.45
C      17.75      13.73      24.15
O      18.35      13.36      23.09
O      16.24      13.35      21.07
C      12.64      12.53      24.90
C      20.19      12.53      20.70
O      16.59      13.35      24.53
C      17.59      10.10      24.26
C      15.24      10.10      21.34
N      13.80      11.89      25.11
N      19.03      11.89      20.49
C      13.96      11.17      26.24
C      18.87      11.17      19.36
