23

O       2.72      -5.54       9.05
O      -2.70      -3.59       6.58
O       1.38      -7.37       9.30
Zn       0.01      -5.26       5.55
Zn       1.44      -4.29       8.24
Zn      -0.18      -7.10       8.13
O       0.98      -2.63       9.18
O      -0.14      -8.40       6.67
Zn      -1.73      -4.33       8.11
O      -1.37      -4.09       4.80
O       1.83      -4.80       4.95
O      -2.91      -5.47       9.19
O      -0.10      -5.24       7.51
O      -1.28      -2.83       9.30
O      -0.42      -7.05       4.86
O       2.43      -3.48       6.70
C      -0.19      -2.17       9.47
C      -0.36      -8.19       5.43
C       2.60      -3.96       5.54
C      -2.69      -6.65       9.63
C       2.48      -6.74       9.42
C      -2.44      -3.65       5.34
O      -1.74      -7.42       9.27
