17

Ni       5.70      11.17      10.53
C       6.39      13.86      11.49
N       4.46      12.57       9.61
C       6.40      12.32      13.14
H       5.78       8.94       9.55
N       4.47      10.34      11.99
H       5.78      10.06       8.37
N       6.04      12.62      11.88
C       3.43      12.16       8.84
C       3.43       9.55      11.63
O       7.19      12.01       9.34
C       7.28      11.86       8.08
O       7.20      10.04      11.43
C       7.29       8.77      11.36
O       5.24       9.70       9.15
C       4.78      13.88       9.57
C       4.79      10.41      13.30
