10

Al       4.60      16.12      14.14
C       2.47      14.37      15.17
C       2.47      16.12      12.11
C       2.48      17.88      15.17
O       3.48      17.66      14.42
O       3.48      15.12      15.34
O       3.48      15.61      12.69
O       5.72      17.12      15.34
O       5.72      16.63      12.69
O       5.72      14.58      14.42
