10

Al       4.01       8.63       9.96
C       2.00       8.66       7.91
C       2.00       6.83      10.95
C       2.00      10.38      11.01
O       2.94       9.55      11.26
O       2.94       9.29       8.51
O       2.94       7.04      10.11
O       5.08      10.21      10.18
O       5.08       7.64      11.22
O       5.08       8.02       8.48
