23

Zn      20.01       9.67       0.82
Zn      20.69      11.17      -1.92
Zn      18.78      12.57       0.28
Zn      21.92      12.27       0.82
C      20.35       8.24      -1.74
C      18.37      12.87      -2.64
C      17.32      10.46       1.74
C      20.35      14.60       1.74
C      22.32       9.97       2.64
C      23.38      12.38      -1.74
O      20.35      11.42      -0.00
O      20.10       8.21      -0.50
O      19.36      12.15      -2.97
O      17.36      11.65       1.28
O      20.60       9.28      -2.44
O      18.23       9.58       1.65
O      18.03      13.12      -1.44
O      19.23      14.20       1.28
O      22.66      11.12       2.21
O      21.46      13.99       1.65
O      21.34       9.30       2.21
O      22.46      11.83      -2.44
O      23.33      12.63      -0.50
