50

C       9.45      -2.74       9.14
Gd      12.59      -2.92       7.74
O      10.59      -3.25       9.23
O      11.15      -4.48       6.66
C      10.51      -5.48       7.06
Gd      16.15      -2.92       9.89
O      17.55      -4.91       9.97
O      16.97      -4.03      11.93
C       9.63      -5.93       4.85
C       8.98      -7.36       6.79
C      18.04      -6.17      11.95
C      17.49      -4.96      11.25
O      15.84      -0.93       8.63
O      14.11      -1.20       7.18
C      15.19      -0.66       7.57
H      10.53      -5.79       8.12
O      13.46      -2.13       9.73
O      14.73      -1.86      11.54
H       8.62      -5.57       4.66
H      10.35      -5.15       4.59
H       9.81      -6.83       4.24
H       7.91      -7.18       6.65
O      18.15      -2.59       8.39
O      17.58      -1.36      10.96
H       9.26      -8.29       6.27
H       9.18      -7.49       7.87
C      13.63      -1.75      10.93
C      19.28      -3.10       8.48
C      18.23      -0.36      10.56
C      19.10       0.09      12.77
C      19.75       1.52      10.83
H      18.21      -0.05       9.50
H      20.12      -0.27      12.97
N       9.76      -6.25       6.27
H      18.39      -0.69      13.03
H      20.83       1.33      10.98
H      19.48       2.45      11.35
H      19.56       1.64       9.76
H      18.92       0.98      13.38
C      10.70       0.33       5.68
N      18.97       0.41      11.35
C      11.25      -0.88       6.37
O      11.18      -0.93       7.66
O      11.77      -1.81       5.69
C      13.55      -5.18      10.06
O      12.89      -4.92       9.00
O      14.63      -4.64      10.44
C      15.11      -4.10       6.69
O      15.28      -3.71       7.89
O      14.01      -3.99       6.08
