36

Zn       0.88       0.38      22.80
Zn      -1.67      -1.61      22.59
Zn      -1.65      -1.94      25.85
C      -3.11       0.66      26.51
C       1.13      -1.18      28.83
Zn       0.80       0.22      26.05
C      -4.63      -2.58      23.08
C       2.75      -1.92      23.25
C       2.24       2.98      25.66
C      -0.16      -4.43      25.12
C      -4.56      -2.94      25.25
C       2.86      -1.92      25.46
C       2.51       2.95      23.48
C      -0.34      -4.32      22.92
C      -1.44       2.09      26.26
C      -0.37      -2.77      28.56
C      -3.04       1.08      22.20
C       1.55      -1.00      20.13
N      -0.94       1.19      22.82
N      -0.45      -1.43      20.92
N      -2.08       0.02      25.91
N       0.38      -0.87      27.74
N      -3.37      -2.33      23.50
N       1.72      -1.19      23.73
N       1.79       1.80      25.21
N      -0.47      -3.16      24.78
N      -3.33      -2.56      24.86
N       1.79      -1.19      25.09
N       1.94       1.78      23.85
N      -0.58      -3.09      23.43
N      -1.06       0.90      25.76
N      -0.56      -1.86      27.59
C      -1.28       2.40      22.33
N       0.63      -0.60      21.03
N      -2.02       0.37      22.73
C      -0.19      -2.33      19.95
