32

Cd       0.06       5.55       6.90
Cd       0.06       4.88       3.53
Cd      -2.86       6.90       4.88
Cd      -2.86       3.53       5.55
C      -0.43       3.17       9.26
C      -0.43       7.26       1.17
C      -3.35       9.26       7.26
C      -3.35       1.17       3.17
H      -0.10       3.07       5.74
H      -0.10       7.36       4.69
H       2.81       5.74       7.36
H       2.81       4.69       3.07
N       0.40       4.05       8.72
N       0.40       6.38       1.71
N      -2.51       8.72       6.38
N      -2.51       1.71       4.05
O      -2.95       2.01       7.35
O      -2.95       8.42       3.08
O      -0.04       7.35       8.42
O      -0.04       3.08       2.01
O      -0.62       3.88       5.50
O      -0.62       6.55       4.93
O       2.29       5.50       6.55
O       2.29       4.93       3.88
C      -4.06       1.44       7.04
C      -4.05       8.99       3.40
C      -1.14       7.04       8.99
C      -1.14       3.40       1.44
C       1.43       4.16       9.62
C       1.43       6.27       0.81
C      -1.49       9.62       6.27
C      -1.49       0.81       4.16
