23

Zn       9.28      18.92       0.88
Zn       9.08      21.90      -0.24
Zn       6.47      20.45       0.90
Zn       7.74      19.51      -1.90
C       6.93      23.42       0.96
C       9.32      21.62      -3.20
C       4.83      19.87      -1.48
O       8.14      20.18      -0.10
O      10.81      21.82       0.67
O      11.10      19.62       1.19
O       6.41      19.46       2.59
O       8.52      18.59       2.67
O       8.30      17.64      -2.03
O       9.47      17.23      -0.12
O       6.31      22.38       1.33
O       8.05      23.46       0.35
O       8.59      20.58      -3.33
O       9.62      22.20      -2.11
O       5.80      19.62      -2.26
O       4.89      20.10      -0.23
C      11.50      20.82       1.07
C       7.37      18.85       3.17
C       9.01      16.91      -1.26
