15

Cu      19.30      19.43      21.71
Cu      21.56      19.44      19.48
Cu      19.30      21.69      19.47
N      21.59      18.13      20.79
C      20.83      17.11      22.59
N      20.60      18.12      21.75
C      22.43      17.12      21.04
C      16.97      22.56      21.02
N      17.99      20.74      21.74
C      16.98      20.98      22.59
C      22.43      20.98      17.16
N      17.99      21.72      20.77
C      20.84      22.54      17.15
N      20.60      21.71      18.17
N      21.58      20.73      18.17
