23

Zn      16.22       9.33       1.12
Zn      17.97      10.85      -1.05
Zn      17.84       7.67      -0.97
Zn      19.46       9.25       1.33
O      17.90       9.29       0.13
O      15.21      10.99       0.84
O      18.23      10.35      -2.94
O      16.31       6.50      -0.62
O      16.28      11.87      -0.97
O      15.01       7.86       0.65
O      17.71       8.14      -2.87
O      19.47       6.65      -0.66
O      18.90       9.33       3.23
O      20.58       7.64       1.06
O      16.64       9.12       3.03
O      19.43      12.05      -0.55
O      20.60      10.83       0.97
C      15.35      11.85      -0.09
C      18.00       9.22      -3.48
C      15.24       6.78       0.02
C      20.42       6.72       0.18
C      17.71       9.24       3.71
C      20.43      11.84       0.22
