23

O      16.65      12.97       0.77
Zn      18.84       8.92       1.16
Zn      18.36      12.09       1.16
O      20.86      12.59      -0.92
O      16.34       8.43      -0.92
Zn      20.16      10.76      -1.15
Zn      17.04      10.25      -1.15
C      20.70      13.44       0.01
C      16.50       7.58       0.01
C      21.51       8.41      -0.00
C      15.70      12.61      -0.00
C      18.60      10.51      -3.64
C      18.60      10.51       3.64
O      18.60      10.51       0.02
O      19.81      13.42       0.91
O      17.40       7.60       0.91
O      21.53       9.42      -0.79
O      15.67      11.60      -0.78
O      19.74      10.67      -3.07
O      17.47      10.35      -3.07
O      18.40      11.64       3.07
O      18.80       9.38       3.07
O      20.56       8.05       0.77
