18

Cd       4.95      -2.32       9.77
O       5.75      -0.45       8.64
Cd       2.10      -3.17      11.66
O       5.83      -3.80      11.25
O       1.22      -1.70      10.18
O       4.04      -3.97      12.66
O       3.01      -1.52       8.77
O       2.57      -1.37      13.03
C       3.60      -0.77      12.62
O       4.48      -4.12       8.40
C       3.45      -4.73       8.82
O       4.28      -1.00      11.57
C       0.07      -4.77      12.64
O       2.77      -4.50       9.86
C       6.98      -0.72       8.79
C       5.21      -4.23      12.27
C       1.85      -1.26       9.17
O       1.31      -5.04      12.79
