23

Zn      20.04       9.69       0.82
Zn      20.72      11.19      -1.92
Zn      18.81      12.59       0.28
Zn      21.95      12.29       0.82
O      20.38      11.44      -0.00
O      20.15       8.24      -0.50
O      19.39      12.16      -2.97
O      17.40      11.66       1.26
O      20.61       9.30      -2.43
O      18.27       9.61       1.67
O      18.06      13.14      -1.45
O      19.27      14.22       1.26
O      22.70      11.13       2.21
O      21.48      14.00       1.67
O      21.37       9.32       2.21
O      22.49      11.86      -2.43
O      23.36      12.62      -0.50
C      20.38       8.25      -1.75
C      18.40      12.89      -2.64
C      17.34      10.48       1.75
C      20.38      14.62       1.75
C      22.36       9.99       2.64
C      23.42      12.40      -1.75
