66

Hf      19.40      16.56      18.51
Hf      15.09      18.33      20.09
Hf      16.18      16.85      17.16
Hf      18.32      18.12      21.47
Hf      17.81      19.75      18.34
Hf      16.61      15.21      20.31
O      20.06      14.61      18.78
O      20.73      17.90      17.38
O      19.63      15.74      16.43
O      20.47      17.52      21.75
O      17.55      15.80      15.52
O      21.26      16.78      19.74
O      19.69      19.92      17.18
O      17.89      17.74      17.62
O      19.35      18.60      19.52
O      17.38      15.27      18.15
O      18.34      16.40      20.24
O      18.34      16.77      23.12
O      17.22      20.06      16.10
O      16.98      19.09      20.14
O      15.67      18.95      18.03
O      15.54      16.61      19.13
O      16.26      17.11      21.51
O      15.96      17.95      15.40
O      13.86      17.10      16.86
O      13.11      18.22      18.69
H      15.12      19.57      17.52
O      13.58      17.16      21.19
H      15.93      17.02      22.42
H      14.31      15.29      15.90
O      15.21      15.00      16.16
H      18.38      21.94      19.68
O      13.83      20.24      19.95
H      20.21      19.90      22.18
H      16.32      14.59      23.01
O      14.99      19.46      22.04
H      19.25      16.56      23.38
H      20.43      14.13      18.03
H      12.97      19.94      19.59
H      19.09      20.79      20.66
O      19.28      19.93      21.88
H      17.82      12.86      19.95
O      17.05      19.21      23.00
H      16.46      21.88      17.52
H      13.73      20.55      20.87
O      18.96      21.16      19.69
O      16.92      21.56      18.31
H      15.05      18.19      15.17
H      15.76      14.90      15.36
H      16.78      19.23      15.67
H      19.07      13.91      19.65
H      17.67      15.59      22.83
H      20.20      19.05      19.65
C      20.67      19.12      17.03
C      21.36      17.03      20.97
C      18.80      15.53      15.51
C      13.04      17.87      17.47
C      13.61      15.95      21.62
C      15.88      19.67      22.96
O      18.27      13.66      20.27
H      17.47      14.38      17.76
H      17.94      20.38      15.53
O      15.79      13.49      19.64
H      14.86      13.30      19.83
O      17.09      14.74      22.44
O      14.53      15.09      21.41
