18

Al       6.73      24.19      19.65
Al       3.36      24.19      19.68
H       5.04      22.43      19.86
H       8.41      25.93      19.71
O       3.89      25.63      20.85
O       6.20      25.14      18.05
O       7.30      22.72      18.56
C       5.04      25.45      17.61
C       5.05      26.07      21.17
C       8.40      22.91      21.72
C       8.43      22.31      18.15
O       6.17      25.66      20.73
O       7.26      23.21      21.24
O       3.91      25.21      18.15
O       5.04      23.40      19.80
O       9.54      23.15      21.22
O       9.57      22.75      18.51
O       8.42      24.97      19.55
