18

Al       7.44      14.39       9.94
Al      10.81      14.49       9.96
H       9.08      16.23       9.92
H       5.69      12.66       9.81
O       6.94      15.41      11.46
O       4.57      15.70       8.54
O      10.24      13.16       8.66
O       8.07      13.00      11.10
O       7.98      13.40       8.41
O      10.29      13.37      11.42
O       4.70      15.78      11.28
O       6.84      15.73       8.71
O       9.11      15.26       9.98
O       5.74      13.62       9.90
C       5.83      15.93      11.86
C       5.74      16.04       8.13
C       9.13      12.94       8.04
C       9.16      12.86      11.76
