12

O      13.19       9.36      13.03
C      13.58       7.03      15.57
C      17.98       9.48      13.37
O      15.23       7.33      12.61
C      12.95       9.90      11.90
Zn      15.08       9.02      13.83
O      15.11      10.95      14.57
C      15.36      12.01      13.90
O      17.12       8.94      14.14
N      14.48       8.04      15.52
C      15.56       7.37      11.38
C      15.01       8.11      16.77
