40

Zn       7.95       2.69       9.07
Zn       7.96      -2.67       9.02
Zn       5.74      -0.15       9.16
Zn      10.19       0.16       9.15
N       7.38       1.77      10.85
N      10.12      -2.57       8.65
N       8.52      -1.75      10.80
N       5.79       2.59       8.70
N       5.17      -1.92       9.85
N       9.43       0.74       7.41
N      10.76       1.93       9.84
N       6.45      -0.73       7.41
N       5.94      -3.00       9.44
N       8.39       1.64       7.38
N       9.99       3.01       9.45
N       7.48      -1.63       7.34
N       9.26      -0.63      10.81
N       4.86       1.64       8.72
N       6.63       0.65      10.84
N      11.06      -1.62       8.70
C       7.41       2.23      12.11
C      10.70      -3.71       8.26
N       9.83      -4.83       8.18
N       6.08       4.85       8.20
C       5.21       3.73       8.28
C       8.45      -2.20      12.07
C       4.12      -2.40      10.56
C      10.09       0.81       6.23
C      11.83       2.40      10.53
C       5.73      -0.80       6.26
O       8.60      -4.65       8.45
C       5.32      -4.09       9.90
C       8.44       2.22       6.17
O       7.31       4.67       8.49
C      10.61       4.10       9.91
C       7.37      -2.22       6.14
C       9.67      -0.37      12.07
C       3.67       2.16       8.33
C       6.18       0.41      12.08
C      12.25      -2.15       8.33
