19

O      -7.16      12.45      12.33
Zn      -6.15      10.66      16.52
O      -7.20      12.43      20.71
Zn      -6.01      12.23      19.19
O      -8.02      11.13      15.77
Zn      -7.59      11.33      13.85
O      -5.63      12.51      17.27
C      -8.85      10.02      11.66
C      -4.25      12.67      21.38
C      -7.62      12.19      11.14
C      -6.74      12.70      21.90
C      -8.90      11.87      16.45
C      -5.83      13.65      16.59
C      -4.72       9.95      14.11
O      -6.29      10.32      18.48
C      -6.26       9.06      18.93
O      -5.79      10.61      14.56
O      -8.58       9.92      12.92
O      -4.30      12.39      20.12
