10

Al       0.04      13.99       0.00
O       1.09      12.39      -0.12
O       1.09      14.89      -1.32
O       1.09      14.68       1.45
O      -1.02      13.02      -1.27
O      -1.02      13.37       1.47
O      -1.02      15.57      -0.20
C       2.02      12.13      -0.98
C       2.02      15.76      -1.12
C       2.02      14.06       2.10
