20

Zn       6.67       5.89       5.56
Zn       3.92       6.19       5.52
C       5.24       6.11       2.91
C       5.20       6.10       8.18
C       5.17       3.43       5.44
C       5.59       8.63       5.77
C      10.84       5.44       6.47
C      10.74       6.71       4.53
C       9.46       5.30       6.44
C       9.36       6.59       4.53
N       8.73       5.88       5.48
N      11.47       6.15       5.51
O       6.35       5.99       3.55
O       6.33       5.94       7.59
O       4.11       6.27       3.48
O       4.08       6.04       7.58
O       6.34       3.91       5.62
O       6.63       7.93       5.58
O       4.10       4.11       5.33
O       4.39       8.18       5.78
