10

Al       0.35      20.83       4.01
O      -0.80      21.57       2.61
O      -0.80      19.26       4.07
O      -0.80      21.68       5.34
O       1.51      20.65       2.49
O       1.51      22.24       4.61
O       1.51      19.61       4.93
C      -1.83      18.92       4.74
C      -1.83      22.42       5.31
C      -1.83      21.16       1.99
