10

Al       3.96      10.07      11.63
C       5.94      10.07       9.58
C       5.94      11.85      12.65
C       5.94       8.30      12.66
O       5.01       9.13      12.93
O       5.01       9.42      10.16
O       5.01      11.67      11.80
O       2.90       8.48      11.80
O       2.90      11.01      12.93
O       2.90      10.72      10.16
