23

Zn      13.56       8.13       1.97
Zn      11.97       7.07      -0.67
Zn      15.21       7.06      -0.56
Zn      13.64       9.76      -0.82
O      13.65      10.01       2.46
O      15.08       9.81      -2.17
O      10.81       8.25      -1.71
O      16.15       6.31       0.97
C      11.03       9.44      -2.11
C      16.00       6.54       2.22
C      11.08       6.56       2.10
C      16.26       9.35      -1.97
C      13.68       5.13      -2.15
C      14.09      11.01       1.80
O      13.57       7.98       0.01
O      12.06      10.15      -1.88
O      11.87       7.35       2.69
O      15.03       7.14       2.77
O      10.92       6.38       0.85
O      16.55       8.32      -1.28
O      12.54       5.53      -1.73
O      14.19      11.08       0.52
O      14.82       5.66      -1.90
