18

Zn       8.74       8.05       9.61
Zn       5.94       8.05       9.61
C       7.34       5.44       9.60
C       2.74       8.03       9.68
C       7.34       7.98       7.00
C       7.34       7.96      12.21
N      10.79       8.04       9.64
N       3.89       8.04       9.64
O       8.48       6.01       9.60
O       6.20       6.01       9.60
O       8.48       8.03      11.64
O       6.20       8.03      11.64
C      11.94       8.03       9.68
O       6.20      10.09       9.61
O       8.48       8.03       7.57
O       6.20       8.04       7.57
O       8.48      10.09       9.61
C       7.34      10.66       9.61
