18

H       5.45      25.57       8.80
In       3.64      27.35       9.57
In       7.27      27.35       9.57
O       4.32      28.76       8.00
O       4.32      28.65      11.18
C       1.82      25.69      11.62
O       7.95      26.01      11.15
C       1.82      25.66       7.50
O       7.95      25.98       7.98
C       5.45      29.07       7.51
O       1.82      28.45       9.53
C       5.46      28.98      11.65
O       5.45      26.25       9.50
O       6.59      28.65      11.18
O       2.96      26.01      11.15
O       2.96      25.98       7.98
O       6.59      28.76       8.00
H       1.82      29.15       8.85
