18

Al       1.10       5.44      13.17
O       3.88       6.70      11.83
Al      -2.25       5.44      13.17
O      -1.68       4.17      14.51
O       1.60       6.61      11.72
O       0.59       4.27      14.62
O       1.66       6.75      14.47
O       0.54       4.13      11.87
O       3.92       6.64      14.56
H      -0.57       7.17      13.42
O      -1.73       4.23      11.78
H       2.76       3.70      12.91
C       2.75       7.00      11.31
O      -0.57       6.24      13.16
C      -0.56       3.88      15.02
O       2.77       4.63      13.17
C       2.79       7.06      14.97
C      -0.60       3.82      11.37
