12

Cu       3.41       2.83       5.20
O       5.21       2.57       4.38
C       1.95       2.74       2.44
O       1.75       3.22       6.26
O       3.56       1.04       6.10
O       3.40       4.73       4.56
C       4.14       0.87       7.22
C       6.28       2.83       5.03
C       1.69       0.79       3.64
C       1.81       3.68       7.45
N       2.25       2.01       3.52
C       3.94       5.64       5.26
