33

Mg       8.28       7.29      12.34
Mg      11.68       6.76      11.33
Mg       4.91       7.78      13.44
C       7.10       6.45      15.02
C       5.71       5.80      11.30
C       5.66      10.20      15.02
O      12.67       5.41      12.76
O      13.60       7.17      10.67
O       9.84       5.84      12.13
H      10.26       5.23      12.95
H       9.42       5.17      11.56
H      14.36       6.63      11.03
O       2.96       7.37      13.83
O       6.72       8.68      12.60
O       5.86       6.65      14.80
O       4.73       6.39      11.88
O       4.74       9.42      14.62
H      13.89       8.08      10.92
O       6.92       5.90      11.64
O       8.05       6.79      14.24
O      10.78       8.10       9.87
O      11.87       8.27      12.75
O      11.51       5.32       9.83
O       9.67       8.68      12.78
O       8.64       7.52      10.27
H       2.22       7.99      13.63
H       2.59       6.52      13.47
H       6.52       9.25      11.83
H       6.86       9.41      13.42
C      12.18       4.68      13.70
C       9.55       8.16       9.60
C      10.63       4.83       9.10
C      10.83       8.82      13.26
