23

Zn      12.86      14.16      10.11
Zn      13.06      12.38       7.44
Zn      11.37      15.13       7.45
Zn      14.54      15.21       7.57
C      10.55      12.73       5.87
O      12.96      14.21       8.15
O      12.87      12.32      10.78
O      11.54      12.02       6.24
O      10.15      15.69       8.87
C      10.25      15.55      10.14
C      12.96      11.21      10.15
C      15.36      15.73      10.41
O      11.82      16.73       6.40
O      15.57      15.86       9.13
O      14.10      16.81       6.52
O      14.38      15.11      10.92
O      10.34      13.95       6.25
O      15.77      14.12       6.51
O      13.04      11.06       8.88
C      12.96      17.24       6.14
O      11.21      15.00      10.78
C      15.66      12.90       6.14
O      14.70      12.10       6.40
