20

Zn       6.34       6.24       7.98
Zn       3.57       6.27       8.02
C       4.91       3.65       7.89
C       5.00       6.02      10.64
C       4.96       8.84       8.11
C       4.96       6.27       5.37
C      10.52       5.68       8.93
C      10.53       6.87       7.02
C       9.13       6.85       7.00
C       9.13       5.67       8.92
N      11.25       6.27       8.00
N       8.40       6.24       7.98
O       6.05       4.22       7.89
O       3.78       4.25       7.87
O       6.13       6.10      10.06
O       3.85       6.04      10.09
O       6.09       8.25       8.06
O       3.82       8.27       8.20
O       6.11       6.30       5.91
O       3.83       6.41       5.95
