15

Cu      12.68      20.11      23.05
Cu      11.46      21.29      20.37
Cu      14.08      22.57      21.63
N      12.26      22.72      19.52
N      10.60      19.89      21.22
N      11.03      19.53      22.47
C      10.12      18.68      22.99
N      14.33      20.67      23.64
C       9.45      19.25      20.96
C      15.20      20.20      24.55
C      12.00      23.36      18.37
C      15.97      22.14      23.82
C      13.91      24.15      19.17
N      13.44      23.22      20.03
N      14.82      21.87      23.17
