65

Mn       9.92       9.45      10.09
O      14.59       8.75      11.15
O      14.64      11.92      11.48
Mn      16.73      11.27      11.06
Mn      13.33      10.36      10.58
O      16.79       9.20      11.45
O      16.05      11.90      13.20
O      12.41      10.23      12.51
O      10.35       9.36      12.13
H       7.71      11.35       8.86
C      15.36      10.95       8.27
H       4.16       8.98       8.14
H       4.22       6.57       8.88
H       5.34      11.17       7.99
H      10.93       6.53      11.23
H       7.61       3.78      10.89
H       9.98       4.22      11.58
H       5.46       4.67       9.86
C      15.77       8.43      11.48
C      19.50      10.31      12.27
C      21.47      11.63      12.67
C      21.40      14.03      11.95
C      19.46      12.54      11.67
C      18.73      13.65      11.11
H      18.94       9.37      12.30
H      22.49      11.73      13.02
H      22.44      14.15      12.28
C      14.93      12.20      12.72
H      21.31       9.54      13.16
C      20.81      10.42      12.75
C      20.80      12.74      12.11
C      16.75      14.43      10.21
H      21.19      16.05      11.29
C      18.59      15.96      10.40
C      20.72      15.08      11.41
C      19.36      14.92      10.98
H      15.72      14.19       9.93
C      17.29      15.71      10.02
H      16.67      16.49       9.57
H      19.05      16.94      10.27
C      10.88      12.29       9.68
C      11.29       9.76      12.88
O      10.60       8.82       7.95
C       7.16      10.41       8.88
C       5.19       9.09       8.49
C       5.25       6.69       9.20
C       7.19       8.17       9.48
C       7.92       7.07      10.04
N       7.82       9.38       9.41
N       9.21       7.29      10.41
C      11.72       8.52       8.44
N      18.84      11.34      11.74
N      17.44      13.43      10.74
O      12.06      11.96      10.00
O       9.86      11.52       9.71
O      12.01       8.80       9.67
C       8.06       4.76      10.75
C       9.36       5.01      11.14
C       5.93       5.64       9.74
C       7.29       5.80      10.18
C       9.91       6.29      10.94
C       5.85       7.98       9.05
C       5.84      10.30       8.40
O      14.25      10.49       8.64
O      16.31      11.36       9.03
