15

N      14.44       3.02      19.23
N      14.67       3.56      20.47
N      17.46       5.96      20.59
N      18.44       6.10      19.63
Cu      16.08       4.76      20.51
N      16.77       3.53      16.46
Cu      15.60       3.45      17.87
Cu      18.33       5.07      18.09
N      18.04       4.03      16.57
C      13.93       2.88      21.38
C      13.56       2.01      19.37
C      19.27       7.09      20.04
C      17.70       6.86      21.57
C      16.70       2.78      15.35
C      18.76       3.59      15.51
