14

Zn      10.16      12.55       6.67
O      10.85      14.44       7.32
O       9.43      15.44       8.78
O       9.44      13.31       5.02
Zn       8.61      13.68       8.58
O       8.55      11.28       7.15
O       8.06      14.18       6.59
O       7.16      12.36       8.58
C      10.44      15.45       7.98
O      11.42      11.70       7.87
C       8.47      14.08       5.39
O      10.02      12.50       9.48
C      11.03      11.83       9.09
C       7.49      11.37       7.83
