18

O       5.43      12.48       1.36
O       3.27      12.54      -1.20
Al       2.69      13.86       0.09
Al       6.03      13.85       0.14
O       2.19      15.01      -1.37
O       3.17      12.72       1.56
O       2.10      15.16       1.38
O       5.52      12.76      -1.36
O       4.36      14.67       0.14
O       6.54      14.90       1.65
O       6.62      15.23      -1.08
O       7.70      13.03       0.07
C       4.41      12.28      -1.73
C       4.31      12.26       1.92
C       7.67      15.38       1.97
C       7.71      15.45      -1.70
H       4.37      15.60       0.43
H       7.70      12.21      -0.45
