22

Zn       5.41       7.06       9.76
Zn       8.25       6.63       9.45
C       7.11       9.38       9.30
C       6.55       4.30       9.91
C       1.37       7.99       9.89
C       2.66       5.69       9.31
C       2.39       7.80       8.75
C       1.64       5.89      10.45
C       2.34       7.24      10.84
C       1.70       6.45       8.37
C       7.17       7.34      12.21
C       6.49       6.35       7.00
N       3.35       7.03       9.70
N       0.68       6.66       9.51
O       5.91       9.00       9.50
O       7.74       4.69       9.72
O       8.12       8.64       9.09
O       5.53       5.04      10.11
O       5.96       7.26      11.78
O       7.71       6.41       7.43
O       8.20       7.17      11.49
O       5.47       6.53       7.72
