20

Zn       2.35      11.77       5.40
Zn       2.34      11.75       2.47
C       3.06      11.07       8.22
C       3.00      11.02      -0.35
C       1.52      12.61       8.19
C       1.53      12.62      -0.32
C       2.48      14.34       3.94
C      -0.24      11.74       3.93
C       2.33       9.16       3.98
C       4.94      11.67       3.88
N       2.34      11.83       7.40
N       2.27      11.77       0.47
O       2.09      13.79       5.02
O       0.32      12.10       2.85
O       2.72      13.76       2.84
O       0.33      11.47       5.03
O       2.02       9.75       2.90
O       4.37      12.00       4.97
O       2.64       9.72       5.08
O       4.37      11.37       2.79
