18

Al       1.01      11.90       0.08
Al       4.32      12.08       0.04
C      -0.63      10.33      -1.74
C      -0.77      10.38       1.82
H       2.76      10.38      -0.60
H      -0.51      13.67      -0.42
C       2.58      13.56       1.86
C       2.66      13.63      -1.76
O       0.53      10.77      -1.45
O      -1.83      11.03       1.53
O       3.69      13.44       1.23
O       1.60      13.31      -1.12
O       1.52      12.90       1.61
O       3.83      13.20      -1.50
O      -1.72      10.68      -1.18
O       0.37      10.55       1.29
O       2.70      11.15      -0.01
O      -0.61      12.82       0.02
