19

Mg      -5.12      11.73       6.77
C      -4.56      13.96       8.94
N      -3.86      13.12       5.59
N      -6.38      10.34       7.95
N      -3.34      10.66       6.49
N      -6.91      12.80       7.06
N      -2.86       9.47       6.87
N      -7.39      14.00       6.68
N      -6.00      10.77       4.96
N      -4.25      12.70       8.59
C      -4.22      14.37       5.26
C      -6.03       9.10       8.29
C      -2.62      12.66       5.29
C      -7.63      10.81       8.26
C      -2.38      11.29       5.76
C      -7.87      12.18       7.79
C      -7.07      11.34       4.37
C      -3.18      12.13       9.18
C      -5.69       9.50       4.61
