23

Zn       7.50       9.10      15.53
Zn       7.28      10.90      18.19
Zn       8.96      11.94      15.66
Zn       5.74      11.83      15.59
C       7.41       7.96      18.24
C       9.75      12.45      18.46
C      10.08       9.62      14.22
C       7.32      13.94      14.26
O       7.37      10.93      16.23
O       7.38       7.78      16.97
C       4.99       9.42      14.04
O       8.68      12.02      19.01
O       7.46       9.07      18.86
O       9.18       8.78      14.56
O      10.11      10.87      14.49
O      10.07      12.36      17.24
O       8.46      13.58      14.71
O       4.65      10.51      14.61
O       6.06       8.76      14.22
O       5.60      11.63      18.89
O       6.20      13.34      14.45
O       4.59      12.50      17.04
C       4.68      12.28      18.29
