48

Sn      -1.24      13.34       7.12
C      -3.32      11.34       8.60
C      -0.54      11.50       6.32
Sn       1.18      15.52       5.34
C      -2.54      14.94       6.57
Sn       1.23      14.60       9.02
C      -0.27      14.45       3.17
Sn      -1.18      12.43      10.79
C       2.99      14.53       4.80
C      -0.04      17.23       5.07
H       0.34      11.70       5.70
H      -0.28      10.84       7.16
H      -1.32      11.04       5.71
H      -3.52      14.74       7.03
H      -2.13      15.88       6.94
H      -2.63      14.96       5.48
H       3.58      14.35       5.71
H       3.55      15.14       4.09
H       2.70      13.59       4.33
H      -0.92      16.95       4.47
H       0.56      17.99       4.56
H      -0.35      17.58       6.05
C       3.32      16.61       7.53
C       0.53      16.45       9.82
C       2.54      13.01       9.57
C       0.26      13.50      12.97
C      -3.00      13.41      11.33
C       0.04      10.71      11.07
O      -2.47      10.97       9.48
O      -3.16      12.32       7.81
O      -0.62      13.45       9.09
O      -0.27      14.12       4.43
H      -0.35      16.25      10.43
H       0.28      17.10       8.97
H       1.32      16.90      10.43
H       3.51      13.20       9.11
H       2.12      12.07       9.20
H       2.62      12.98      10.66
O       2.46      16.98       6.66
O       3.15      15.62       8.33
O       0.61      14.49       7.04
O       0.27      13.83      11.70
H      -3.58      13.59      10.43
H      -3.56      12.80      12.05
H      -2.71      14.36      11.81
H       0.91      11.00      11.67
H      -0.56       9.95      11.58
H       0.35      10.36      10.08
