18

Al       4.22       0.01       0.01
O       1.41       1.00       1.53
Al       0.87       0.01      -0.01
O       3.69       1.47      -1.16
O       4.75      -1.03      -1.53
O       3.68       1.01       1.55
O       4.74      -1.44       1.18
O       1.40       1.48      -1.16
O       2.54      -0.78      -0.15
O       7.02      -1.44       1.16
O       7.02      -1.01      -1.54
O       5.88       0.80       0.13
H       2.55      -1.60      -0.67
H       5.87       1.76       0.26
C       2.55       1.90      -1.52
C       2.54       1.32       2.02
C       5.88      -1.87       1.54
C       5.88      -1.31      -2.03
