20

O      10.01      12.75      12.30
Zn       8.39      11.53      12.56
O       9.94      12.79      10.05
Zn       8.34      11.52       9.72
O       7.15      13.09      11.99
O       7.10      13.17       9.73
O       6.72      10.30       9.97
O       6.79      10.26      12.23
C      10.46      13.09      11.16
C       6.83      12.33      14.92
C       8.65      10.99      15.49
C       6.80      13.62      10.88
C       6.27       9.95      11.11
C       9.90      10.72       7.36
C       8.08      12.06       6.79
C       9.93       9.43      11.39
N       7.96      11.68      14.56
N       8.77      11.37       7.72
O       9.59       9.96      10.29
O       9.63       9.88      12.54
