18

Al       0.80      14.33      12.80
O       0.30      13.06      11.44
Al       4.16      14.36      12.77
O       3.53      15.83      13.84
O       2.49      13.53      12.85
C       2.52      15.71      10.81
O      -0.87      15.16      12.68
C      -0.94      12.98      14.74
H      -0.87      16.04      12.25
C       2.43      16.13      14.37
O       3.66      15.30      11.16
O       0.19      13.16      14.18
C      -0.83      12.54      11.20
O       1.30      15.58      14.18
H       2.50      12.59      12.61
O      -1.94      12.86      11.72
O       1.43      15.57      11.46
O       4.65      13.46      14.39
