36

Zn      -1.75       5.51      15.23
N       1.18       5.26      15.29
Zn      -1.43       8.16      17.12
Zn       0.98       6.27      13.57
N      -2.77       5.52      17.03
N       0.37       7.43      17.62
Zn       1.12       9.02      15.32
N      -0.13       8.96      13.77
C      -3.74       7.33      13.90
C      -3.52       4.64      17.72
C       2.12       4.37      15.66
C      -0.56       9.98      13.01
C       0.80       7.02      18.82
C      -1.29      11.24      17.83
C      -0.25       4.11      11.64
C       0.35      11.81      16.47
C       0.25       3.93      16.77
C      -2.09       3.62      12.75
C       2.55       7.64      17.61
C      -0.62       8.14      11.79
C      -3.55       9.12      15.19
C      -3.22       6.43      18.98
C       3.95       7.14      12.98
C       3.99       9.03      14.11
N      -2.61       7.21      14.63
N      -0.81      10.11      17.27
N      -0.25       4.83      12.78
N       0.21      10.47      16.42
N      -1.41       4.53      13.46
N      -0.16       7.83      13.02
N      -2.49       8.31      15.42
N       0.03       4.99      15.98
N       1.44       7.81      16.88
N      -2.59       6.64      17.81
N       2.73       7.34      13.50
N       2.75       8.52      14.21
