23

Zn      10.11      -2.25      11.06
Zn      11.70       0.53      11.09
Zn       8.50       0.55      11.12
Zn      10.09      -0.44      13.73
C       7.59       1.09      13.87
C      12.61      -1.83       9.59
C       7.53      -1.84       9.70
C      12.67       0.98      13.85
C      10.10       2.59       9.72
C      10.10      -3.39      13.79
O      10.10      -0.41      11.76
O      11.72      -2.64      10.01
O       7.35      -0.64      10.08
O      12.85       1.07      12.59
O       8.96       2.07       9.96
O      11.24       2.17      10.11
O      10.09      -2.29      14.42
O      10.11      -3.58      12.53
O       8.52      -2.60       9.95
O      11.68       0.47      14.46
O       7.49       1.31      12.63
O      12.71      -0.59       9.85
O       8.48       0.40      14.47
