20

Cd       3.25      14.68      10.82
Cd       3.26      14.69      13.77
C       6.06      14.79      12.38
C       3.13      11.88      12.21
N       3.24      14.40       8.58
N       3.54      14.69      16.02
O       1.01      14.88      13.92
O       3.07      16.92      10.68
O       1.10      14.67      11.66
O       3.28      16.83      12.94
O       5.49      14.54      13.50
O       3.39      12.45      11.09
O       5.45      14.99      11.28
O       2.93      12.48      13.31
C       3.87      13.34       8.02
C       4.59      14.06      16.57
C       2.66      15.31       7.78
C       2.63      15.28      16.82
C       0.47      14.73      12.77
C       3.21      17.47      11.83
