10

Al       3.98      14.55       0.00
O       2.93      13.59      -1.28
O       2.93      13.92       1.47
O       5.03      15.18       1.47
O       2.93      16.14      -0.19
C       1.99      16.32      -1.02
C       1.99      14.55       2.05
C       1.99      12.78      -1.02
O       5.03      12.96      -0.19
O       5.03      15.51      -1.28
