23

Zn      16.04      16.39      22.34
Zn      17.60      15.47      24.95
Zn      15.81      18.17      25.02
Zn      14.39      15.28      24.85
C      18.61      14.97      22.22
C      18.34      17.84      26.52
C      15.99      19.35      22.33
C      13.19      17.58      26.25
C      13.57      14.79      22.06
C      16.08      13.35      26.32
O      15.96      16.34      24.31
O      17.64      15.54      21.62
O      18.69      16.73      25.99
O      15.93      19.52      23.60
O      18.74      14.82      23.49
O      16.01      18.23      21.70
O      17.23      18.44      26.37
O      14.11      18.43      25.96
O      13.36      14.63      23.31
O      13.14      16.35      25.93
O      14.53      15.44      21.53
O      17.19      13.93      26.10
O      14.92      13.72      25.91
