44

Zn       8.17      -0.13      25.75
C       9.47       1.60      27.96
C       0.10      -1.59      27.96
Zn       1.41       0.14      25.75
Zn      10.99       0.14      25.97
C       9.68      -1.59      23.76
C      -0.11       1.60      23.76
Zn      -1.41      -0.13      25.97
N       6.07      -0.05      25.72
N       3.50       0.06      25.72
N      13.08       0.06      26.00
N      15.65      -0.05      26.00
O       8.45       1.45      24.47
O       1.13      -1.45      24.47
O      10.71      -1.45      27.25
O      -1.13       1.45      27.25
O      10.69       1.70      24.67
O      -1.12      -1.69      24.67
O       8.46      -1.69      27.05
O       1.12       1.70      27.05
O      10.67       1.41      27.58
O      -1.10      -1.41      27.58
O       8.48      -1.41      24.14
O       1.10       1.41      24.14
O       8.43       1.13      27.39
O       1.14      -1.13      27.39
O      10.72      -1.13      24.33
O      -1.14       1.13      24.34
C       5.56      -0.03      24.32
C       4.01       0.04      24.32
C      13.59       0.04      27.40
C      15.14      -0.03      27.40
C       5.61       1.18      26.41
C       3.97      -1.18      26.41
C      13.55      -1.18      25.31
C      15.19       1.18      25.31
C       5.51      -1.24      26.42
C       4.06       1.24      26.42
C      13.64       1.24      25.30
C      15.09      -1.24      25.30
C       9.57       1.98      24.15
C       0.01      -1.97      24.15
C       9.59      -1.97      27.57
C      -0.01       1.98      27.57
