18

Al      -0.32       6.40      10.86
Al      -3.62       6.35      10.85
H      -1.98       7.03       9.26
H       1.31       5.72      12.47
C      -1.89       8.15      12.53
C      -2.01       4.51      12.38
O      -3.13       4.79      11.84
C       1.26       4.53       9.31
O      -0.80       7.92      11.92
C       1.42       8.13       9.21
O       0.31       7.57       9.49
O      -0.94       5.19      12.23
O       0.14       4.84       9.82
O      -2.98       7.48      12.31
O      -1.97       6.41      10.01
O       2.35       5.17       9.45
O       2.51       7.88       9.83
O       1.34       6.34      11.72
