23

Zn      10.55      -0.07       0.95
Zn       8.90      -1.58      -1.22
Zn       8.97       1.60      -1.28
Zn       7.30       0.07       1.03
O       8.90       0.03      -0.11
O      11.75      -1.54       0.48
O       9.30      -1.08      -3.08
O      10.61       2.63      -1.00
O      10.28      -2.85      -0.66
O      11.53       1.62       0.82
O       8.77       1.13      -3.19
O       7.45       2.76      -0.86
O       7.81       0.23       2.95
O       6.14       1.60       0.60
O       9.98      -0.40       2.80
O       7.19      -2.51      -1.12
O       6.31      -1.63       0.79
C      11.40      -2.64      -0.08
C       8.98      -0.02      -3.71
C      11.46       2.56      -0.05
C       6.41       2.61      -0.14
C       8.95      -0.06       3.45
C       6.37      -2.50      -0.14
