11

Zn       8.14       3.55       3.68
N       9.56       4.96       3.11
N       6.51       4.71       4.26
C      10.78       4.99       3.67
O       7.45       2.98       1.89
C       8.12       2.13       5.90
C       8.33       2.12       1.48
C       5.74       5.36       3.37
O       8.93       3.04       5.45
C       9.29       5.83       2.13
C       6.27       4.92       5.57
