20

Zn      11.31       6.62       8.92
Zn       8.59       6.35       9.64
C      10.38       3.92       9.17
C      10.58       6.50      11.80
C       9.51       9.04       9.38
C       9.39       6.60       6.72
C       6.38       4.77      10.74
C       5.52       6.48       9.40
C      14.22       6.58       9.16
C      13.58       8.33       7.77
N      13.25       7.25       8.54
N       6.59       5.81       9.92
O      11.41       4.57       8.79
O       9.27       4.42       9.53
O      11.54       6.42      10.96
O       9.34       6.44      11.52
O      10.67       8.52       9.29
O       8.43       8.40       9.57
O      10.63       6.69       6.97
O       8.46       6.39       7.57
