19

Ru      -1.50       2.57       5.36
C      -4.25       1.96       6.53
C      -1.41      -0.25       4.19
C      -2.46       0.79       7.47
C      -3.00       1.21       3.25
C      -1.00       0.66       7.50
C      -3.48       2.59       3.22
C       1.03       1.39       6.57
C      -3.27       4.73       4.15
C      -1.62       4.53       7.67
C       0.43       2.93       3.05
C      -0.04       5.01       6.01
C       0.50       4.59       4.71
N      -2.92       1.75       6.61
N      -1.95       0.99       4.11
N      -0.32       1.44       6.61
N      -2.88       3.43       4.11
N      -1.06       4.22       6.48
N      -0.01       3.41       4.24
