23

Zn      27.56      14.65      21.45
Zn      29.07      13.71      24.15
Zn      25.94      13.99      24.16
Zn      27.84      16.59      24.05
C      30.17      13.30      21.45
C      27.31      11.77      25.46
C      24.93      13.37      21.44
C      25.33      16.47      25.60
C      27.69      17.59      21.25
C      30.23      15.99      25.55
O      27.58      14.75      23.41
O      29.10      13.60      20.81
O      28.44      12.05      24.95
O      24.89      13.25      22.70
O      30.35      13.42      22.71
O      25.87      13.92      20.76
O      26.24      12.47      25.39
O      24.92      15.36      25.11
O      27.72      17.80      22.51
O      26.46      17.01      25.38
O      27.70      16.46      20.65
O      29.96      14.75      25.56
O      29.59      16.90      24.91
