10

Al       0.07       8.59       0.00
O      -0.97      10.19      -0.20
O      -0.97       7.62      -1.28
O      -0.97       7.97       1.48
O       1.13       9.49      -1.34
O       1.13       9.31       1.44
O       1.13       6.99      -0.10
C      -1.90      10.37      -1.06
C      -1.90       6.79      -1.01
C      -1.90       8.62       2.06
