16

Cd       2.63       2.29       1.05
Cd      -1.28       1.84       1.72
C       0.50      -0.17       0.99
C       4.41       0.85      -0.54
N       1.64       4.05       0.02
N      -2.27       1.55       3.74
O       2.33       1.55       3.15
O      -1.58       3.50       0.25
C       1.76       4.21      -1.31
C      -2.14       0.38       4.40
C       1.00       4.99       0.73
C      -2.91       2.56       4.35
O       0.57       1.04       0.54
O       4.48       0.89       0.76
C       1.28       2.08       3.66
C      -2.63       4.17       0.54
