24

Mn       3.42      12.40       5.01
Mn       3.42      10.54       8.23
C       2.82      11.29       2.31
C       2.82       7.64       8.62
C       4.01      11.65      10.93
C       4.01      15.29       4.62
C       4.22      10.76       2.62
C       4.22       7.64       8.01
C       2.62      12.18      10.62
C       2.62      15.29       5.24
C       6.02      10.67       4.04
C       0.82      14.10       6.02
C       0.82      12.26       9.20
C       6.02       8.83       7.22
N       4.78      11.13       3.77
N       2.05      14.10       5.49
N       2.05      11.80       9.47
N       4.78       8.83       7.75
Cl       4.82      12.31       7.11
Cl       2.02      10.63       6.14
O       2.30      12.04       3.18
O       4.53      14.16       4.41
O       4.53      10.89      10.06
O       2.30       8.78       8.84
