20

Zn      21.54      10.83       1.39
Zn      21.54      10.84      -1.39
N      21.54      10.83       3.57
N      21.53      10.84      -3.58
O      22.96       9.39       1.12
O      22.96       9.38      -1.16
O      22.97      12.28      -1.15
O      22.97      12.27       1.12
O      20.11      12.28      -1.15
O      20.11      12.28       1.12
O      20.11       9.39       1.12
O      20.10       9.39      -1.15
C      23.37       8.98      -0.02
C      23.38      12.68      -0.01
C      19.70      12.68      -0.01
C      19.70       8.98      -0.01
C      20.40      10.83       4.25
C      22.68      10.83       4.26
C      22.68      10.84      -4.26
C      20.39      10.84      -4.27
