23

Zn       9.24       1.59       1.15
Zn       9.24      -1.59       1.16
Zn       7.63      -0.00      -1.12
Zn      10.85      -0.00      -1.12
O       9.24      -0.00       0.01
O      10.38      -0.02      -3.03
O       8.10       0.01      -3.03
O       9.17       1.13       3.06
O       9.28      -1.14       3.07
O       6.52       1.58      -0.79
O      11.96      -1.58      -0.79
O      11.95       1.59      -0.80
O       6.53      -1.59      -0.80
O      10.81      -2.72       0.82
O       7.67       2.72       0.82
O       7.66      -2.71       0.83
O      10.82       2.71       0.83
C       9.24      -0.00      -3.61
C       9.23      -0.00       3.64
C       6.69       2.56       0.01
C      11.79      -2.56       0.02
C      11.79       2.56       0.02
C       6.69      -2.56       0.02
