23

O      19.04       4.01      20.52
Zn      16.64       4.03      16.64
O      18.29       8.35      17.57
O      20.95       4.97      18.29
Zn      19.22       4.11      18.54
O      17.57       5.69      20.95
Zn      16.71       5.94      19.22
Zn      18.54       6.61      16.71
C      17.49       8.70      18.51
C      21.30       5.90      17.49
C      18.51       4.88      21.30
O      16.96       2.14      17.07
O      14.74       4.47      16.96
O      17.07       4.35      14.74
C      17.95       1.62      17.68
O      19.02       2.23      18.03
O      14.83       5.43      19.02
C      14.22       5.08      17.95
C      17.68       5.35      14.22
O      18.03       6.42      14.83
O      17.77       5.17      17.77
O      16.61       7.92      19.04
O      20.52       6.44      16.61
