11

C      11.83      17.52       7.51
C      14.78      21.77       7.38
Zn      14.10      18.94       6.60
O      15.90      18.14       6.46
N      13.69      19.49       4.69
C      12.58      20.16       4.33
C      13.27      20.92       8.69
C      16.28      17.59       7.57
C      14.27      19.04       3.53
O      12.91      17.34       6.78
N      14.05      20.63       7.65
