14

O       3.41       1.39      10.25
O       5.69       1.36      10.22
Zn       5.38      -0.04       8.83
O       2.45       1.43       7.50
Zn       2.69       0.05       8.91
O       4.73       1.36       7.51
C       4.37      -1.79       7.07
C       3.60      -1.78      10.67
C       4.56       1.79      10.65
C       3.61       1.80       7.08
O       5.57      -1.44       7.42
O       3.30      -1.31       7.55
O       2.45      -1.36      10.29
O       4.72      -1.36      10.22
