15

C       6.46       6.86       9.58
Zn       3.83       5.43       9.50
O       5.14       4.43       8.10
C       5.24       4.81       6.88
C       4.76       8.40       9.43
C       2.85       2.49       9.77
C       4.54       4.62      12.29
O       2.50       6.37      10.89
N       5.15       7.12       9.47
N       2.49       3.75       9.51
O       2.78       6.22       7.91
C       2.41       5.98      12.11
C       3.19       6.28       6.70
C       1.21       4.00       9.20
O       4.92       4.65      11.06
