11

N       0.00       4.61       5.30
Zn      -1.04       3.99       6.92
N       0.00       3.37       8.54
C       1.14       4.00       4.90
O      -2.28       5.52       7.19
C      -0.47       5.66       4.59
O      -2.28       2.46       6.65
C      -1.64       1.40       6.25
C       1.14       3.98       8.94
C      -0.47       2.32       9.25
C      -1.64       6.58       7.59
