24

Al      -1.62       8.01      19.04
Al       1.57       7.76      18.98
Al      -0.04       5.22      18.94
H      -3.15       9.70      18.56
C       0.32       9.43      17.18
C       2.04       5.67      17.07
C      -2.07       5.73      17.13
C       0.35       9.22      21.00
C       2.12       5.60      20.77
C      -1.97       5.65      20.88
O      -2.34       6.73      20.35
O       1.44       9.05      20.32
O       1.35       4.78      20.17
O      -0.82       8.94      20.63
O       2.48       6.75      20.34
O      -1.15       4.78      20.39
O      -2.22       6.92      17.52
O       1.46       9.03      17.66
O       1.15       4.86      17.52
O      -0.80       9.23      17.75
O       2.47       6.70      17.70
O      -1.39       4.81      17.74
O      -0.01       6.98      19.02
O      -3.10       8.93      19.14
