36

Zn       1.32       9.28       4.45
Zn       1.22      12.08       6.06
Zn      -1.33      11.07       7.85
Zn      -1.27       8.28       6.14
C      -0.23      10.91       2.48
C       4.19      12.17       5.00
C      -3.33      11.73       5.74
C      -2.90       7.32       8.60
C       0.16      14.85       7.06
C       2.71       7.80       6.61
C      -1.56       6.53       3.58
C       0.88      10.56       9.79
C      -1.54      14.23       8.32
C       0.98       6.99       7.72
C       0.25       7.14       2.49
C       2.61      11.29       8.62
C      -3.37       9.83       4.61
C      -2.97       9.18       9.79
C      -0.29      12.85       3.55
C       4.25      10.23       3.94
N       0.11      10.70       3.77
N       2.95      11.64       5.03
N      -2.25      11.01       6.08
N      -2.33       8.30       7.87
N       0.12      13.51       7.07
N       1.62       8.51       6.27
N      -0.81       7.28       4.42
N       0.51      10.65       8.49
N      -0.94      13.12       7.85
N       0.55       8.00       6.95
N       0.32       7.66       3.73
N       1.57      11.10       7.77
N      -2.27       9.85       5.39
N      -2.37       9.46       8.61
N       0.07      11.89       4.43
N       2.99      10.44       4.37
