23

Zn      27.63      17.80      10.63
Zn      26.03      15.03      10.63
Zn      29.23      15.03      10.63
Zn      27.63      15.95      13.24
C      25.07      17.43       9.19
C      30.19      14.47      13.37
C      27.63      18.91      13.37
C      27.63      13.00       9.19
C      25.07      14.47      13.37
C      30.19      17.43       9.19
O      27.63      15.95      11.28
O      26.05      18.18       9.52
O      24.91      16.21       9.52
O      30.35      14.38      12.11
O      29.21      15.04      13.97
O      27.63      17.78      13.97
O      27.63      19.10      12.11
O      28.77      13.47       9.52
O      26.49      13.47       9.52
O      24.91      14.38      12.11
O      26.05      15.04      13.97
O      30.35      16.21       9.52
O      29.21      18.18       9.52
