23

Zn      22.84      18.52      16.94
Zn      21.33      19.54      14.21
Zn      19.73      18.42      16.71
Zn      21.31      21.30      16.79
C      23.87      18.12      14.25
C      18.95      18.01      14.00
C      21.26      16.44      18.18
C      18.72      20.78      18.07
C      23.67      20.88      18.34
C      21.35      22.43      14.14
O      21.31      19.45      16.17
O      24.16      18.26      15.49
O      19.48      19.11      13.65
O      20.20      17.14      18.14
O      22.74      18.28      13.69
O      22.40      16.74      17.68
O      19.18      17.40      15.10
O      18.43      19.69      17.46
O      23.14      21.64      17.46
O      19.85      21.36      18.12
O      23.44      19.63      18.47
O      21.78      21.36      13.62
O      20.99      22.61      15.35
