35

Zn      14.15       0.52       8.90
Zn      16.06       3.41       9.11
Zn      17.98       1.21       8.88
Zn      16.26      -1.95       9.63
C      14.99       1.00       6.16
N      17.96       4.10       8.73
N      18.55      -0.43       8.07
N      14.74      -2.23       8.30
N      17.13       1.25      10.67
N      14.07       3.54       9.08
N      14.21      -0.12      10.79
N      17.22      -3.32      10.68
N      18.80       3.01       8.84
N      17.86      -1.55       8.42
N      13.75      -1.31       8.09
N      16.39       1.97       7.55
N      13.33       2.38       8.99
N      15.13      -1.09      11.03
N      18.19      -2.62      11.35
N      16.41       2.41      10.82
N      15.46       0.97       7.41
C      18.69       5.12       8.21
C      19.47      -0.76       7.13
C      14.45      -3.32       7.57
C      17.57       0.86      11.88
C      13.29       4.47       9.69
C      13.15      -0.32      11.60
C      17.48      -4.65      10.75
C      20.02       3.36       8.41
C      18.35      -2.58       7.72
C      12.85      -1.84       7.24
C      16.47       2.63       6.35
C      12.13       2.61       9.54
C      14.65      -1.90      11.99
C      16.40       2.73      12.12
