35

Zn       1.23      18.31       8.02
Zn       0.75      20.15      10.77
Zn       3.65      19.78       9.60
Zn      -1.80      17.94      10.49
N       3.03      17.45       8.52
N      -1.46      19.33       9.07
N      -0.81      16.52       9.23
N       3.35      21.56      10.40
N       1.70      18.47      11.30
N      -0.20      19.89       8.92
N      -0.06      16.85       8.13
N      -0.74      20.37      12.00
N       2.03      21.68      10.74
N      -3.20      16.85      11.32
N       2.77      20.44       7.81
N       4.23      18.10       8.68
N      -1.69      19.40      12.07
N      -2.33      16.08      12.08
N       2.17      19.67       6.86
N       3.04      18.66      11.17
C       3.29      16.17       8.24
C      -1.02      21.33      12.90
C       3.67      17.61      11.73
C      -2.30      19.94       8.25
C      -1.37      15.31       8.98
C       4.00      22.64      10.86
C       1.49      17.30      11.97
C      -0.32      20.89       7.98
C      -0.15      15.85       7.22
C       1.88      22.84      11.43
C       2.50      20.15       5.64
C      -4.36      17.01      11.99
C       3.48      21.40       7.19
C       5.22      17.20       8.53
C      -2.58      19.78      13.01
