20

Zn       4.65       4.36       6.36
Zn       4.64       7.09       6.73
C       4.68       6.10       3.99
C       2.04       5.73       6.68
C       5.16       9.87       7.85
C       3.69       9.72       6.04
C       4.68       5.38       9.12
C       5.51       1.68       7.02
C       4.09       1.52       5.19
C       7.24       5.71       6.47
N       4.73       2.28       6.13
N       4.51       9.13       6.90
O       5.03       4.96       4.42
O       4.22       7.05       4.71
O       2.68       4.73       6.19
O       2.58       6.80       7.09
O       4.40       4.34       8.44
O       5.00       6.52       8.64
O       6.66       4.61       6.77
O       6.63       6.79       6.21
