14

Zn       5.97       9.02      18.29
Zn       3.31       8.85      18.46
O       6.08      10.41      16.91
O       3.82      10.26      17.06
O       3.01       7.46      17.09
O       5.27       7.61      16.97
C       4.89      10.76      16.57
O       6.44       7.66      19.64
O       5.27      10.33      19.71
C       4.16       7.12      16.60
C       5.35       7.17      20.13
C       4.16      10.69      20.20
O       4.18       7.53      19.78
O       3.01      10.21      19.86
