16

V       1.21       3.21       4.08
O       4.26       2.33       5.51
V       4.60       3.66       4.08
O       0.86       4.54       2.66
O       0.86       4.54       5.51
O       4.26       2.33       2.66
C       3.17       1.81       2.22
O       2.00       2.05       5.46
C       3.17       1.82       5.94
O      -1.39       4.83       2.70
C      -0.22       5.06       2.23
O      -1.39       4.83       5.46
O       2.00       2.05       2.70
O       3.05       4.21       4.08
C      -0.22       5.06       5.94
O      -0.34       2.66       4.08
