23

Zn      12.92      14.19      10.12
Zn      13.08      12.42       7.45
Zn      11.41      15.17       7.45
Zn      14.60      15.22       7.58
C      13.01      11.24      10.16
C      10.61      12.75       5.90
C      10.31      15.58      10.17
C      13.01      17.27       6.14
C      15.41      15.74      10.39
C      15.71      12.91       6.14
O      13.00      14.24       8.16
O      12.94      12.34      10.79
O      11.58      11.99       6.24
O      10.21      15.71       8.90
O      13.07      11.08       8.89
O      11.27      15.03      10.80
O      10.42      13.95       6.27
O      11.86      16.77       6.40
O      15.60      15.86       9.14
O      14.14      16.80       6.52
O      14.44      15.13      10.96
O      14.73      12.13       6.42
O      15.83      14.14       6.50
