20

Zn      10.03       9.61       9.55
Zn       7.12       9.63       9.57
C       8.70      12.23       9.83
C      13.00      10.04       8.48
C       4.14       9.19      10.63
C      13.02       9.17      10.61
C       4.16      10.01       8.48
C       8.69       6.99       9.48
C       8.48       9.45       6.96
C       8.46       9.69      12.18
N      12.29       9.60       9.55
N       4.87       9.61       9.56
O       9.83      11.61       9.85
O       7.58       7.64       9.64
O       9.81       7.60       9.32
O       7.60      11.63       9.53
O       9.59       9.73       7.53
O       7.32       9.81      11.61
O       9.57       9.47      11.58
O       7.34       9.44       7.54
