15

N       3.03      13.40      25.16
N       2.72      13.16      23.84
N       0.34      15.28      22.01
N       0.32      16.63      22.25
N       1.63      17.64      25.54
N       1.91      16.66      26.46
Cu       1.49      14.22      22.98
Cu       2.38      14.98      25.86
Cu       1.06      17.17      23.85
C       3.53      12.18      23.39
C       4.02      12.55      25.51
C      -0.47      17.21      21.31
C      -0.44      15.03      20.94
C       1.99      17.24      27.68
C       1.56      18.82      26.20
