54

In       9.93      18.04      24.30
In      10.78      21.45      25.05
In       9.08      14.64      23.55
In      13.23      24.03      25.10
In       6.63      12.06      23.50
In      14.89      27.07      24.30
H      14.88      25.55      26.47
H       4.98      10.54      22.13
H      12.05      22.77      23.18
C      12.12      26.33      23.06
H       7.80      13.32      25.42
C      15.76      24.23      23.38
H      12.12      19.12      25.27
C       7.73       9.76      25.54
H       7.74      16.97      23.34
C       4.10      11.85      25.23
C      12.88      22.08      27.48
C       6.97      14.01      21.13
O      14.15      25.79      25.87
O       5.70      10.29      22.73
O      12.39      22.40      24.02
O       7.46      13.69      24.59
O      11.48      19.48      24.62
O       8.38      16.61      23.98
O      12.27      25.11      23.39
O       7.59      10.98      25.22
O      12.88      27.30      23.43
O      16.90      26.83      25.18
O       9.12      20.70      26.27
O      10.73      15.39      22.33
O       9.18      18.43      26.33
O      10.67      17.66      22.27
O       8.45      11.41      22.37
O      11.41      24.68      26.23
O      10.09      12.74      23.22
O       9.76      23.35      25.38
O       8.52      19.44      23.27
O      11.33      16.65      25.33
C       9.06      19.57      26.88
O       9.68      21.39      23.17
C      10.79      16.52      21.72
O      10.18      14.70      25.43
O      15.30      25.38      23.01
O      14.48      28.76      25.59
O      15.19      23.47      24.24
O       4.66      12.62      24.37
O      13.70      22.87      26.88
C       9.67      11.72      22.57
O       6.15      13.22      21.72
C      10.18      24.37      26.04
O      11.90      21.46      26.93
C       8.68      20.65      22.90
O       7.95      14.62      21.67
C      11.18      15.44      25.71
