54

Tb       5.51      -5.85      21.59
Tb       1.71      -9.27      23.54
C       2.15      -6.70      21.31
C       5.07      -8.42      23.82
C       7.25      -3.83      24.11
C      -0.03     -11.29      21.02
C       2.76      -4.80      24.03
H       7.81      -4.68      24.52
C       4.46     -10.32      21.11
H      -0.60     -10.44      20.61
O       5.09      -5.36      19.17
H       7.04      -3.10      24.91
O       2.12      -9.76      25.97
H       0.18     -12.02      20.22
O       6.04      -7.28      19.81
H       7.85      -3.34      23.34
O       1.18      -7.84      25.32
H      -0.64     -11.78      21.80
H       3.11      -3.77      23.99
O       7.37      -4.53      20.87
H       4.11     -11.35      21.15
O      -0.15     -10.59      24.27
H       2.38      -5.03      25.04
O       7.79      -6.27      22.19
H       4.84     -10.09      20.10
O      -0.57      -8.85      22.95
H       1.94      -4.94      23.30
O       1.66      -7.38      22.26
H       5.28     -10.18      21.83
O       5.56      -7.74      22.87
H       5.42      -4.69      24.13
O       3.39      -6.77      20.97
H       1.79     -10.43      21.01
O       3.83      -8.35      24.16
O       6.03      -4.26      23.49
H       3.65      -6.60      23.90
O       1.19     -10.86      21.65
H       3.56      -8.52      21.23
O       3.88      -5.65      23.71
H       4.66      -3.75      20.16
O       3.34      -9.47      21.42
H       2.56     -11.37      24.97
O       4.50      -3.65      21.12
H       5.15      -3.00      21.44
O       2.72     -11.47      24.01
H       2.07     -12.12      23.69
C       5.44      -6.57      18.92
C       1.78      -8.55      26.21
C       5.07      -7.21      17.63
C       2.15      -7.91      27.51
C       8.20      -5.33      21.43
C      -0.99      -9.79      23.70
C       9.66      -5.19      21.17
C      -2.44      -9.93      23.96
