18

Al      -2.38       3.85       5.88
Al       0.92       3.87       5.88
H      -0.72       5.46       6.61
H      -4.10       2.25       5.24
O      -2.86       5.65       5.42
O      -5.22       3.43       7.71
O       0.30       2.06       5.68
O      -1.72       3.61       4.13
O      -1.88       2.04       6.28
O       0.44       4.31       4.04
O      -5.05       5.68       6.01
O      -3.05       4.08       7.62
C      -3.95       6.25       5.70
C      -4.06       3.54       8.23
C      -0.80       1.47       5.93
C      -0.72       4.16       3.51
O      -0.73       4.50       6.49
O      -4.04       3.22       5.26
