23

Zn       9.36       8.93       8.29
Zn       7.81      11.73       8.29
Zn       9.38      10.79       5.67
Zn      11.03      11.68       8.29
C       9.43      13.73       9.73
C       9.39       7.84       5.53
C       6.77       9.31       9.66
C      11.92      12.31       5.54
C       6.77      12.17       5.56
C      11.91       9.25       9.74
O      10.90      11.79       4.95
O       6.64      12.33       6.82
O      12.12      10.47       9.39
O       7.75      11.62       4.95
O      10.91       8.53       9.42
O       7.76       8.55       9.37
O      12.15      12.31       6.80
O       8.27      13.27       9.40
O       9.39       8.97       4.93
O       9.40      10.78       7.63
O      10.56      13.24       9.39
O       9.39       7.66       6.80
O       6.64      10.55       9.34
