20

Zn       0.28       6.86       8.25
Zn      -2.00       5.15       8.33
H       2.68       7.48       8.84
H      -4.40       4.53       7.74
H       2.59       7.31       7.32
H      -4.31       4.69       9.25
C      -1.82       7.71      10.07
C       0.09       4.29       6.50
C      -1.83       7.32       6.21
C       0.10       4.69      10.37
O      -0.64       7.98       9.68
O      -1.09       4.02       6.89
O      -2.55       6.78       9.57
O       0.83       5.22       7.00
O      -2.58       6.43       6.74
O       0.86       5.58       9.83
O      -0.66       7.63       6.61
O      -1.06       4.38       9.96
O       2.08       7.72       8.07
O      -3.81       4.28       8.50
