41

O       3.34       1.53      20.83
Zn       3.35       3.35      17.07
C       4.42       5.59      13.09
C       2.65       4.84      23.16
Zn       3.92       2.53      13.81
Zn       2.53       3.92      20.33
C       4.84       2.65      10.98
C       0.46       4.37      22.52
C       4.37       0.46      11.62
C       2.93       6.13      18.34
C       6.13       2.93      15.80
C       1.74       3.95      14.37
C       3.95       1.74      19.76
C       0.78       4.99      14.90
H       0.92       5.16      15.97
C       5.00       0.78      19.24
H       5.16       0.92      18.17
N       4.33       4.48      21.49
H      -0.25       4.71      14.68
H       4.71      -0.25      19.46
N       4.48       4.33      12.65
N       1.77       4.40      22.23
H       0.99       5.93      14.36
H       5.93       0.99      19.78
N       4.40       1.77      11.91
O       3.21       1.29      16.67
C       3.17       0.45      15.73
C       0.45       3.17      18.40
O       1.29       3.21      17.47
O       3.33       0.66      14.49
O       0.66       3.33      19.65
O       3.41       5.40      17.43
O       5.40       3.41      16.71
O       2.46       5.78      19.47
O       5.78       2.46      14.66
C       4.07       4.85      22.76
O       2.85       3.75      15.05
O       3.75       2.85      19.09
C       4.85       4.07      11.38
C       5.59       4.42      21.05
O       1.53       3.34      13.31
