18

Al       4.60      14.37      10.63
O       7.44      15.98      11.54
O       5.09      12.89      11.80
Al       7.92      14.37      10.60
O       3.97      13.15       9.29
O       5.25      15.61      11.92
O       4.11      15.89       9.58
O       7.31      13.24      12.06
O       6.25      14.29       9.78
O       1.92      15.48       9.19
O       1.75      12.77       9.59
H       6.23      13.69       9.01
O       2.93      14.36      11.47
H       2.91      13.76      12.23
C       6.22      12.65      12.34
C       6.31      16.30      12.04
C       2.99      16.15       9.02
C       2.89      12.50       9.10
