154

Gd       7.28       4.20       4.01
Gd      14.56       8.41       4.01
Gd      14.56       8.41      -4.01
Gd       7.28       4.20      -4.01
Zn      10.92       6.31      -0.00
Zn       3.64       6.31      -0.00
Zn       7.28      -0.00       0.00
Zn       7.28      -0.00       8.03
Zn       3.64       6.31       8.03
Zn      10.92       6.31       8.03
H       8.57       5.76       0.80
H       5.29       4.54       0.80
H       7.99       2.31       0.80
H      13.28       6.85       0.80
H       1.99       8.07       0.80
H       6.58      -2.31       0.80
H       7.99      -2.31       7.22
H       1.29       6.85       7.22
H      12.57       8.07       7.22
H       6.58       2.31       7.22
H       5.99       5.76       7.22
H       9.27       4.54       7.22
H      13.28       6.85      -0.80
H       1.99       8.07      -0.80
H       6.58      -2.31      -0.80
H       8.57       5.76      -0.80
H       5.29       4.54      -0.80
H       7.99       2.31      -0.80
H       6.58       2.31       8.83
H       5.99       5.76       8.83
H       9.27       4.54       8.83
H       7.99      -2.31       8.83
H       1.29       6.85       8.83
H      12.57       8.07       8.83
C      10.10       4.41       2.23
C       5.70       6.55       2.23
C       6.05       1.66       2.23
C      11.74       8.21       2.23
C       1.59       6.07       2.23
C       8.52      -1.66       2.23
C       6.05      -1.66       5.79
C       2.82       8.21       5.79
C      12.98       6.07       5.79
C       8.52       1.66       5.79
C       4.46       4.41       5.79
C       8.87       6.55       5.79
C      11.74       8.21      -2.23
C       1.59       6.07      -2.23
C       8.52      -1.66      -2.23
C      10.10       4.41      -2.23
C       5.70       6.55      -2.23
C       6.05       1.66      -2.23
C       8.52       1.66      10.26
C       4.46       4.41      10.26
C       8.87       6.55      10.26
C       6.05      -1.66      10.26
C       2.82       8.21      10.26
C      12.98       6.07      10.26
C      10.50       3.24       3.12
C       6.51       7.47       3.12
C       4.84       1.90       3.12
C      11.35       9.37       3.12
C       0.77       5.14       3.12
C       9.72      -1.90       3.12
C       4.84      -1.90       4.91
C       3.22       9.37       4.91
C      13.79       5.14       4.91
C       9.72       1.90       4.91
C       4.07       3.24       4.91
C       8.06       7.47       4.91
C      11.35       9.37      -3.12
C       0.77       5.14      -3.12
C       9.72      -1.90      -3.12
C      10.50       3.24      -3.12
C       6.51       7.47      -3.12
C       4.84       1.90      -3.12
C       9.72       1.90      11.14
C       4.07       3.24      11.14
C       8.06       7.47      11.14
C       4.84      -1.90      11.14
C       3.22       9.37      11.14
C      13.79       5.14      11.14
O       8.75       6.31      -0.00
O       4.72       4.42       0.00
O       8.37       1.88       0.00
O      13.10       6.30       0.00
O       2.56       8.19      -0.00
O       6.19      -1.88      -0.00
O       8.37      -1.88       8.03
O       1.47       6.30       8.03
O      12.00       8.19       8.03
O       6.19       1.88       8.03
O       5.81       6.31       8.03
O       9.84       4.42       8.03
O      11.00       4.81       1.46
O       4.89       7.12       1.46
O       5.95       0.68       1.46
O      10.84       7.80       1.46
O       2.39       5.49       1.46
O       8.61      -0.68       1.46
O       5.95      -0.68       6.56
O       3.72       7.80       6.56
O      12.17       5.49       6.56
O       8.61       0.68       6.56
O       3.56       4.81       6.56
O       9.67       7.12       6.56
O      10.84       7.80      -1.46
O       2.39       5.49      -1.46
O       8.61      -0.68      -1.46
O      11.00       4.81      -1.46
O       4.89       7.12      -1.46
O       5.95       0.68      -1.46
O       8.61       0.68       9.49
O       3.56       4.81       9.49
O       9.67       7.12       9.49
O       5.95      -0.68       9.49
O       3.72       7.80       9.49
O      12.17       5.49       9.49
O       8.91       4.85       2.34
O       5.91       5.29       2.34
O       7.03       2.47       2.34
O      12.94       7.76       2.34
O       1.38       7.33       2.34
O       7.53      -2.47       2.34
O       7.03      -2.47       5.69
O       1.62       7.76       5.69
O      13.19       7.33       5.69
O       7.53       2.47       5.69
O       5.66       4.85       5.69
O       8.66       5.29       5.69
O      12.94       7.76      -2.34
O       1.38       7.33      -2.34
O       7.53      -2.47      -2.34
O       8.91       4.85      -2.34
O       5.91       5.29      -2.34
O       7.03       2.47      -2.34
O       7.53       2.47      10.37
O       5.66       4.85      10.37
O       8.66       5.28      10.37
O       7.03      -2.47      10.37
O       1.62       7.76      10.37
O      13.19       7.33      10.37
O       9.43       2.96       4.01
O       7.28       6.69       4.01
O       5.13       2.96       4.01
O      12.41       9.65       4.01
O      -0.00       5.93       4.01
O       9.43      -2.96       4.01
O      12.41       9.65      -4.01
O      -0.00       5.93      -4.01
O       9.43      -2.96      -4.01
O       9.43       2.96      -4.01
O       7.28       6.69      -4.01
O       5.13       2.96      -4.01
