36

Zn       9.68       8.01       9.56
Zn       7.08       6.03       9.64
Zn       7.08       6.02      13.04
Zn       9.49       8.24      12.84
C       4.97       8.14      10.16
C      12.60       8.89      10.12
C       8.01      10.64      12.05
C       6.37       3.04      12.33
C       4.60       7.59      12.23
C      12.52       8.97      12.28
C       8.23      10.62       9.86
C       6.08       3.21      10.16
C       7.85       9.55      15.08
C       9.28       4.62      14.45
C       6.53       7.73       7.14
C      11.15       5.63       9.31
N       8.64       7.71       7.81
N       8.98       5.31       9.57
N       7.18       7.52      14.55
N       9.98       6.37      13.33
N       6.06       7.48      10.62
N      11.32       8.77      10.50
N       8.33       9.38      11.68
N       6.46       4.34      12.01
N       5.82       7.15      11.93
N      11.26       8.81      11.87
N       8.46       9.38      10.32
N       6.27       4.45      10.64
N       8.24       8.41      14.48
N       8.98       5.45      13.43
C       8.48       8.74       6.97
N      10.05       6.07       9.99
N       7.41       7.08       7.92
C       9.42       4.45       8.64
C       6.17       8.13      15.20
C      10.90       6.11      14.28
