18

Al       6.20       8.37      17.86
O       9.03       7.50      16.36
Al       2.89       8.52      17.89
O       6.68       7.22      19.41
H       4.44       6.78      18.42
H       7.73      10.09      18.47
O       3.54       9.91      16.77
O       5.60       9.79      19.04
O       5.71       9.40      16.33
O       3.36       9.61      19.46
O       8.92       7.09      19.03
O       6.83       7.03      16.66
O       4.52       7.62      17.94
O       7.83       9.27      17.95
C       7.86       6.77      19.64
C       7.97       6.86      16.10
C       4.63      10.06      16.13
C       4.53      10.09      19.66
