18

O       2.59       5.14      15.59
O       0.39       5.18      18.21
Al      -0.18       6.46      16.88
Al       3.18       6.42      16.88
O       0.34       5.30      15.45
O       2.66       5.24      18.33
H       1.53       8.16      17.25
H       4.89       4.73      17.27
O       3.74       7.72      18.18
O      -0.76       7.73      15.56
O       1.51       7.26      16.90
O       4.86       5.62      16.91
C       4.86       8.02      18.72
C       4.83       7.96      15.02
C       1.47       4.89      15.05
C       1.51       4.88      18.74
O       6.01       7.66      18.31
O       3.70       7.54      15.43
