26

Co       2.17       3.36       3.44
Co       5.10       3.25       7.78
N       6.12       1.70       8.64
N       3.20       4.91       2.58
N       1.36       1.62       4.34
N      -1.56       4.99       6.88
O       3.59       2.93       4.82
O       0.67       3.67       6.40
O       1.08       2.95       1.74
O       4.01       3.65       9.48
O       3.12       2.08       1.72
O       6.05       4.53       9.50
O       3.83       1.95       6.84
O       0.91       4.66       4.38
C       3.25       2.09       5.72
C       0.33       4.51       5.50
C       2.08       1.22       5.41
C      -0.84       5.39       5.81
C       0.29       0.92       3.96
C      -2.64       5.69       7.26
C       2.68       6.14       2.41
C       5.61       0.46       8.81
C       4.41       4.65       2.04
C       7.33       1.96       9.18
C       2.03       2.33       1.12
C       4.96       4.28      10.10
