18

Al      -0.65      14.01      22.37
O      -1.25      15.27      21.11
Al       2.68      13.98      22.28
O       2.24      12.53      23.43
O       1.00      14.06      21.58
H       0.96      14.51      20.72
O      -3.49      15.41      21.16
H      -2.32      13.38      23.98
O       3.30      12.77      20.93
C       1.13      12.28      23.98
O      -2.29      13.97      23.20
C       0.90      15.87      23.99
C      -2.34      15.82      20.79
C      -2.17      12.20      20.68
O       2.01      15.23      23.83
O       0.01      12.80      23.72
O      -1.07      12.46      21.25
O      -0.21      15.55      23.50
