19

Co      -1.20       4.79       4.52
C      -0.65       4.29       7.39
C      -0.61       4.34       1.66
C       1.46       5.96       4.18
C      -1.86       1.96       4.87
C      -1.75       7.40       3.27
C       1.33       3.63       4.45
C      -3.87       4.85       5.78
C      -3.75       4.48       3.47
C       0.40       2.52       4.60
N      -1.44       6.70       4.38
N      -3.13       4.68       4.67
N      -0.94       5.17       6.40
N      -1.53       4.46       2.64
N       0.71       4.85       4.33
C      -1.36       7.35       5.57
N      -0.91       2.90       4.71
C      -1.03       6.50       6.71
C      -2.85       4.31       2.34
