18

Al       1.87      16.33       6.36
O       2.43      17.52       4.97
Al       5.22      16.29       6.36
O       5.79      15.11       7.75
O       1.34      15.03       5.04
O       4.69      17.60       7.68
O       3.53      15.49       6.45
H       3.48      14.73       7.05
O       0.18      17.13       6.27
H       0.12      17.90       5.66
C       3.55      17.94       8.15
C       0.20      14.68       4.57
C       3.57      17.92       4.58
C       0.22      14.70       8.14
O       4.69      17.43       4.92
O       1.34      15.19       7.80
O       2.41      17.64       7.68
O      -0.95      14.98       5.04
