20

Zn      10.07       6.45       8.45
Zn      11.07       9.10       8.63
C      10.42       7.48      11.13
C      10.62       8.05       5.96
C      11.48      11.90       7.99
C       9.68       3.65       9.06
C      12.93       6.67       8.61
C       8.22       8.91       8.70
C      12.90      11.36       9.76
C       8.12       4.24       7.44
N      11.99      10.98       8.86
N       9.14       4.57       8.24
O      10.04       6.42      10.53
O      10.91       9.13       6.58
O      10.83       8.55      10.57
O      10.40       6.92       6.50
O      12.03       5.77       8.63
O       9.11       9.82       8.68
O      12.73       7.91       8.43
O       8.43       7.66       8.57
