14

Zn      10.10      12.61       6.73
O      10.84      14.46       7.29
O       9.63      15.47       8.92
Zn       8.62      13.77       8.71
O       9.13      13.38       5.22
C       8.18      14.14       5.66
O       8.55      11.32       7.20
O       7.87      14.30       6.89
O       7.47      12.19       9.00
C       7.69      11.28       8.13
C      11.20      12.05       9.13
O      11.35      11.64       7.92
C      10.62      15.39       8.12
O      10.27      12.81       9.54
