36

In       9.28       0.08      23.43
In      12.81       0.02      23.41
In      16.33      -0.07      23.38
In       5.72      -0.02      23.35
C       7.36       2.11      21.79
H      11.03      -0.70      21.66
H      14.59       0.79      25.14
C      14.55      -2.08      21.75
O      11.03       0.08      22.23
O      10.01      -1.26      25.05
O      12.09       1.38      25.00
O      12.13      -1.79      24.43
O       9.94       1.88      24.46
O      14.58      -0.01      24.58
O       8.78      -1.74      22.28
O      13.48       1.83      22.38
O      13.50      -1.35      21.82
O       8.43       1.44      21.94
O       3.94      -0.05      22.19
O      17.19      -1.42      24.88
C      14.56       2.03      21.72
O       4.86       1.25      24.97
O       5.18      -1.89      24.35
O      16.87       1.76      24.47
O       7.48      -0.01      24.56
O      15.64      -1.87      22.38
H       3.89       0.71      21.58
O       6.22       1.84      22.32
O       6.62      -1.26      21.76
O      15.59       1.28      21.74
H       7.51      -0.79      25.14
C       4.08      -2.12      24.95
C       3.83       1.97      25.06
C       7.68      -1.97      21.68
C      11.06      -1.99      25.09
C      11.03       2.10      25.08
