10

Al       0.03       6.17       3.56
O       1.09       5.53       2.10
O       1.09       7.76       3.74
O       1.09       5.23       4.86
O      -1.02       6.80       2.09
O      -1.02       4.59       3.76
O      -1.02       7.14       4.84
C       2.01       7.94       4.60
C       2.01       4.39       4.58
C       2.01       6.18       1.51
