23

Zn      17.52       5.05      31.86
Zn      14.34       4.89      31.67
Zn      16.05       2.17      31.71
Zn      15.82       3.99      34.37
C      15.91       7.04      30.40
C      13.57       2.48      30.14
C      18.66       2.72      30.44
C      15.94       1.03      34.43
C      18.30       5.59      34.66
C      13.20       5.35      34.35
O      15.94       4.02      32.40
O      17.07       6.62      30.77
O      13.35       3.69      30.48
O      17.71       1.91      30.69
O      14.79       6.50      30.65
O      18.76       3.93      30.82
O      14.54       1.75      30.52
O      16.00       0.85      33.16
O      17.32       4.96      35.19
O      15.90       2.15      35.04
O      18.52       5.73      33.41
O      13.10       5.43      33.08
O      14.16       4.82      35.01
