23

Zn       4.42      20.93      19.77
O       4.66      22.89      19.70
O       6.37      23.13      18.22
C       5.63      19.87      22.23
C       5.53      23.57      19.07
Zn       4.81      18.84      17.29
Zn       6.90      21.32      17.68
Zn       6.84      18.90      19.71
O       2.85      18.91      17.53
O       2.61      20.39      19.24
O       5.71      20.03      18.58
C       5.87      16.38      18.50
C       2.17      19.54      18.40
O       4.71      20.59      21.70
O       6.40      19.07      21.60
C       9.36      20.11      18.74
O       5.15      16.91      17.58
O       6.67      17.01      19.27
O       8.83      21.03      18.02
O       8.73      19.34      19.54
C       6.20      20.21      15.04
O       6.83      21.08      15.72
O       5.35      19.37      15.48
