23

Zn      23.30      18.77      16.99
Zn      21.74      19.68      14.28
Zn      20.10      18.66      16.83
Zn      21.55      21.45      16.94
O      21.69      19.63      16.25
O      24.48      18.19      15.53
O      20.22      18.74      13.48
O      20.52      17.06      17.87
O      23.41      18.87      13.62
O      22.81      17.16      18.01
O      19.03      18.08      15.30
O      18.89      19.74      17.94
O      23.02      21.84      18.18
O      19.90      21.79      17.96
O      24.29      19.96      18.18
O      21.72      21.54      13.63
C      24.37      18.32      14.26
C      19.22      18.16      14.02
C      21.67      16.63      18.26
C      18.96      20.98      18.27
C      24.05      21.16      18.56
C      21.67      22.64      14.26
O      21.61      22.81      15.53
