20

Zn       5.65       8.55       8.86
O       6.09      10.57       9.25
O       5.99       7.95      10.84
O       8.21      10.59       8.49
Zn       8.63       8.68       8.91
O       8.03       8.90      10.99
C       7.34       6.06       9.01
C       7.05       8.94       6.31
C       7.10      11.18       8.77
C       7.04       8.28      11.47
C      11.46       7.85       8.16
C      11.39       9.43       9.90
C       2.82       9.33       9.62
C       2.90       7.82       7.82
N      10.74       8.68       8.96
N       3.54       8.53       8.79
O       6.29       6.57       8.50
O       8.38       6.74       9.31
O       8.05       8.40       6.84
O       5.93       9.17       6.87
