10

Al       0.08      12.31       0.00
O      -0.99      13.90      -0.14
O      -0.99      11.40      -1.31
O      -0.99      11.63       1.44
O       1.14      13.30      -1.25
O       1.14      12.90       1.49
O       1.14      10.73      -0.23
C      -1.92      10.55      -1.06
C      -1.92      12.27       2.06
C      -1.92      14.11      -0.99
