14

O      14.31       7.50       0.47
O      17.15       7.93       1.00
O      15.80       8.71       2.64
Zn      16.47       8.43      -0.90
Zn      14.95       9.48       1.07
C      17.51      10.76      -0.15
C      13.80      10.01      -1.27
C      14.71       6.58      -0.30
C      16.78       7.99       2.21
O      17.78       9.87      -1.04
O      16.50      10.78       0.60
O      14.85       9.44      -1.70
O      13.55      10.28      -0.03
O      15.67       6.66      -1.15
