10

Al       4.31       4.03       7.03
C       6.32       4.06       4.90
O       5.51       5.14       8.23
O       5.33       4.61       5.52
O       5.43       2.54       7.26
O       3.29       5.63       7.28
O       3.19       3.09       8.21
O       3.11       3.54       5.48
C       6.53       5.90       8.06
C       6.42       2.29       8.04
