23

Zn      -3.03      12.43       8.20
Zn      -6.22      12.43       8.20
Zn      -4.62      13.35       5.60
Zn      -4.62      15.19       8.20
C      -4.62      10.36       9.67
C      -7.21      11.85       5.44
C      -2.03      11.85       5.44
C      -4.62      16.34       5.44
C      -2.03      14.84       9.67
C      -7.21      14.84       9.67
O      -4.62      13.35       7.55
O      -3.49      10.87       9.30
O      -7.34      11.78       6.72
O      -3.04      12.44       4.87
O      -5.76      10.87       9.30
O      -1.91      11.78       6.72
O      -6.21      12.44       4.87
O      -4.62      15.17       4.87
O      -3.04      15.57       9.30
O      -4.62      16.48       6.72
O      -1.91      13.61       9.30
O      -7.34      13.61       9.30
O      -6.20      15.57       9.30
