18

Al       1.40      14.77      18.39
C       3.09      13.06      20.08
Al       4.75      14.81      18.37
C      -0.27      16.52      16.68
O       1.94      13.43      19.67
O       0.86      16.10      17.11
O      -1.42      16.14      17.09
O       0.86      15.92      19.84
O       4.22      13.66      16.92
O       3.07      15.60      18.44
O      -0.29      13.98      18.33
O       1.94      13.62      16.94
H       3.06      16.46      18.87
O      -1.41      15.96      19.82
H      -0.30      13.12      17.89
O       4.21      13.48      19.65
C       3.08      13.29      16.48
C      -0.27      16.29      20.28
