23

Zn       9.02       3.83       7.11
Zn       7.24       6.50       7.12
Zn      10.46       6.63       6.95
Zn       8.99       5.71       9.68
O       6.14       5.13       6.24
O       7.71       3.56       5.67
O       9.22       3.89      10.38
O       8.66       2.59       8.59
O      11.39       5.54       5.59
O      10.83       3.48       6.38
O       6.34       7.41       8.61
O       7.34       6.48      10.44
O       9.85       8.31       6.11
O       7.62       7.92       5.80
O      11.80       7.03       8.35
O      10.53       6.80      10.23
O       8.93       5.69       7.72
C       6.55       4.10       5.61
C       8.92       2.79       9.82
C      11.52       4.28       5.66
C       6.46       7.19       9.85
C       8.70       8.55       5.61
C      11.56       7.18       9.59
