12

C       2.29      10.05      17.75
Co       1.86       7.48      16.45
N       1.52       8.94      17.79
C       0.50       8.91      18.68
C      -0.59       7.32      15.69
N       2.28       5.76      17.35
C       4.50       7.86      15.98
O       3.38       7.88      15.30
C       3.29       4.96      16.95
O       0.50       7.56      15.03
C       1.70       5.51      18.54
O      -0.56       6.89      16.88
