66

Zn      11.42       6.91       6.08
Zn       6.54       5.12       2.95
Zn      16.31       8.73       2.96
Zn      17.86      13.86       5.91
Zn      12.98       1.80       9.05
Zn      12.98      12.03       9.03
C      13.99       7.99       4.79
C      12.60       9.32       7.56
C       9.11       5.70       4.52
C       7.71       2.64       4.29
C      18.87       7.08       2.67
C      17.48       8.81       0.14
C      15.29      12.78       7.20
C      16.69      11.45       4.43
C      10.41       1.22       7.47
C      11.81       4.28       7.70
C      10.41      13.69       9.32
C      11.81      11.96      11.85
N      12.18      10.34       8.33
N      10.84      10.18       8.50
N      10.45       9.12       7.86
N      11.53       8.56       7.25
N      14.58       8.01       3.58
N      13.73       7.39       2.72
N      12.67       7.01       3.38
N      12.81       7.38       4.68
N       7.30       1.46       4.79
N       5.96       1.40       4.56
N       5.57       2.48       3.97
N       6.65       3.29       3.79
N       9.70       6.74       5.15
N       8.85       7.79       5.04
N       7.79       7.41       4.38
N       7.92       6.10       4.05
N      12.18       2.04      10.86
N      10.84       2.27      10.92
N      15.34       9.17       0.17
N      16.41       8.92       0.96
N       4.81       6.02       3.26
N       3.97       5.59       4.23
N      17.55       6.34       4.23
N      17.69       7.29       3.26
N      17.11      10.43       3.66
N      18.45      10.59       3.49
N      18.83      11.65       4.14
N      17.76      12.21       4.74
N      14.71      12.75       8.41
N      15.56      13.38       9.27
N      16.62      13.76       8.61
N      16.48      13.39       7.31
N      12.23       5.46       7.20
N      13.56       5.53       7.43
N      13.95       4.44       8.02
N      12.87       3.63       8.20
N       9.83       0.19       6.84
N      10.68      -0.87       6.95
N      11.74      -0.49       7.61
N      11.60       0.82       7.94
N       7.34       4.88       1.13
N       8.68       4.65       1.07
N      13.95      11.60      11.82
N      12.87      11.85      11.03
N      14.71       0.90       8.73
N      15.56       1.34       7.76
N      11.74      14.43       7.76
N      11.60      13.48       8.73
