10

Al       0.98      17.64      10.22
O      -0.07      18.32       8.75
O      -0.07      16.02      10.36
O      -0.07      18.56      11.53
O       2.04      17.03       8.75
O       2.03      19.22      10.43
O       2.04      16.66      11.48
C      -1.00      15.83      11.20
C      -1.00      19.40      11.28
C      -1.01      17.68       8.16
