23

Zn      15.10       8.08       7.09
Zn      15.25       6.10       9.59
Zn      17.77       7.83       8.62
Zn      16.88       5.32       6.94
C      15.49       3.37       8.67
C      16.77      10.34       7.56
C      12.85       7.66       8.89
C      19.71       5.98       7.52
C      17.13       7.36      11.40
C      15.28       6.29       4.72
O      16.22       6.80       8.05
O      16.41       6.33      11.18
O      15.91       5.31       5.23
O      17.50       8.23      10.53
O      15.25       7.48       5.23
O      13.23       7.99       7.72
O      18.84       5.38       6.80
O      14.75       4.22       9.29
O      17.77       9.50       7.54
O      16.49       3.64       7.93
O      15.56       9.96       7.40
O      13.54       7.11       9.80
O      19.48       6.97       8.30
