18

Zn       5.77       7.89       9.68
Zn       8.54       8.07       9.68
O       6.06       5.86       9.60
O       6.00       7.71      11.72
O       8.25      10.09       9.77
O       8.25       8.03      11.71
O       6.06       7.92       7.65
O       8.31       8.24       7.64
C       2.58       7.94       9.61
N      10.57       8.04       9.74
N       3.74       7.91       9.62
O       5.97       9.92       9.79
C       7.07      10.57       9.77
O       8.34       6.03       9.58
C       7.24       5.38       9.59
C       7.13       7.87      12.29
C       7.18       8.08       7.08
C      11.73       8.01       9.76
