23

Zn      17.72       4.94      32.01
Zn      14.52       4.83      31.85
Zn      16.21       2.10      31.85
Zn      16.03       3.88      34.53
C      16.11       6.95      30.56
C      13.72       2.43      30.30
C      18.83       2.62      30.56
C      16.12       0.93      34.56
C      18.52       5.44      34.82
C      13.41       5.27      34.56
O      16.12       3.94      32.56
O      17.25       6.51      30.94
O      13.50       3.64      30.66
O      17.86       1.82      30.82
O      14.97       6.43      30.82
O      18.94       3.83      30.94
O      14.70       1.70      30.66
O      16.18       0.77      33.29
O      17.54       4.83      35.36
O      16.06       2.04      35.20
O      18.74       5.57      33.57
O      13.30       5.40      33.29
O      14.38       4.73      35.19
