15

N      16.68       2.44      10.38
Cu      16.93       4.60      12.09
Cu      14.69       6.37      10.61
Cu      15.24       3.40       9.73
C      16.96       6.98      13.79
C      15.27       8.09      12.91
C      17.29       1.33       9.96
N      15.48       6.99      12.16
N      16.53       6.29      12.72
N      17.36       2.91      11.48
C      13.11       4.04       7.87
N      13.89       4.34       8.91
N      13.85       5.71       9.10
C      18.38       2.07      11.74
C      13.06       6.23       8.14
