23

Zn      18.51      12.60       9.81
Zn      16.93      11.51       7.26
Zn      20.13      11.56       7.19
Zn      18.42      14.31       7.09
C      15.97      11.14      10.04
C      18.53       9.43       5.91
C      21.06      11.14       9.99
C      21.01      13.89       5.66
C      18.46      15.54       9.78
C      15.92      13.82       5.68
O      18.53      12.50       7.85
O      16.94      11.74      10.62
O      17.40       9.90       6.27
O      21.21      11.00       8.74
O      15.83      10.97       8.78
O      20.09      11.73      10.58
O      19.68       9.92       6.17
O      21.23      12.68       6.01
O      18.42      15.67       8.51
O      20.01      14.60       5.99
O      18.50      14.45      10.45
O      15.86      12.60       6.06
O      16.83      14.66       6.00
