14

Zn       3.96      18.18       9.21
Zn       6.61      18.35       9.04
O       3.49      19.54       7.86
O       5.75      19.67       7.73
O       6.91      19.73      10.42
O       4.65      19.58      10.53
O       6.10      16.93      10.44
O       3.84      16.78      10.59
O       4.65      16.87       7.79
O       6.91      16.98       7.64
C       4.58      20.03       7.38
C       5.76      20.07      10.91
C       5.04      16.44      10.93
C       5.76      16.50       7.30
