25

Cd      11.81       8.06      20.23
N       9.46       7.94      20.25
O      11.81       9.69      21.99
O      11.81       7.83      17.91
H      14.23       6.17      19.19
H       9.38       6.17      19.19
H      16.71       6.09      19.09
H       6.91       6.09      19.09
H      16.73       9.82      21.30
H       6.89       9.82      21.30
H      14.25       9.72      21.29
H       9.37       9.72      21.29
C      11.81       8.83      22.93
C      11.81       9.10      17.69
C      14.84       6.95      19.64
C       8.78       6.95      19.64
C      16.22       6.92      19.60
C       7.39       6.92      19.60
C      16.97       7.95      20.20
C       6.65       7.95      20.20
C      16.24       8.98      20.81
C       7.38       8.98      20.81
C      14.85       8.94      20.82
C       8.77       8.94      20.82
N      14.16       7.94      20.25
