23

O      16.93       6.96       6.62
O      16.95      10.04       7.47
Zn      15.27      10.86       8.07
Zn      18.42      11.08       8.24
Zn      16.97      10.10       5.51
Zn      16.98       8.20       8.13
C      16.61      12.67       9.88
C      14.19       8.35       9.02
C      14.64      11.87       5.41
C      19.26       8.77       9.90
C      19.63      11.43       5.59
C      16.88       7.16       5.36
O      17.70      12.64       9.23
O      15.57      11.94       9.68
O      15.33       7.78       9.14
O      13.95       9.46       8.45
O      15.40      11.06       4.80
O      14.56      12.05       6.67
O      18.53       7.91       9.31
O      19.30      10.02       9.66
O      18.60      11.06       4.94
O      19.74      11.52       6.86
O      17.00       8.28       4.76
