10

Al       0.21      12.22       0.00
O      -0.91      13.77      -0.21
O      -0.91      11.27      -1.24
O      -0.91      11.63       1.45
O       1.33      13.21      -1.20
O       1.33      12.77       1.45
O       1.33      10.69      -0.25
C      -1.89      10.48      -1.02
C      -1.89      12.21       2.02
C      -1.89      13.98      -1.00
