14

Cu      -5.37      19.62      10.22
O      -6.51      21.22      10.22
O      -7.95      17.93      10.37
O      -6.51      18.81       8.84
C      -7.54      18.14       9.18
Cu      -6.92      18.66      11.88
O      -7.95      20.33      11.76
C      -4.74      17.02      11.12
O      -4.34      17.95      10.34
O      -5.78      17.06      11.88
C      -4.74      20.13      12.92
O      -4.34      20.35      11.73
O      -5.78      19.46      13.26
C      -7.54      21.25      10.97
