14

C      -1.33       7.74       1.43
C      -4.82       7.00       0.52
C      -4.16       9.78      -2.18
O      -1.08       7.39       0.21
Zn      -3.93       9.47       0.93
Zn      -2.36       8.32      -0.94
O      -3.92       7.00      -0.37
C      -1.96      11.14       0.50
O      -3.11       9.11      -2.54
O      -5.12       7.97       1.31
O      -1.64      10.19      -0.28
O      -4.61       9.82      -0.99
O      -3.06      11.20       1.18
O      -2.31       8.43       1.82
