14

Zn       7.37       2.08      23.03
Zn       7.38      -0.61      23.49
O       8.69       1.07      21.82
O       6.03      -0.57      24.92
O       5.97      -0.06      22.09
O       8.73       2.54      24.38
O       6.03       2.13      21.58
O       8.81       0.31      24.69
O       8.65      -1.18      22.11
O       6.08       1.68      24.56
C       9.08      -0.11      21.55
C       5.66       0.64      25.14
C       5.64       0.92      21.37
C       9.15       1.50      24.98
