18

Al       6.04       5.73       8.07
Al       2.71       5.74       8.15
H       4.29       6.63       6.58
H       7.60       4.41       9.30
O       6.68       7.54       7.93
O       8.79       5.78       6.32
O       3.23       3.88       8.05
O       5.55       6.14       9.89
C       7.70       8.18       8.41
C       7.71       5.54       5.67
C       4.37       3.32       8.34
C       4.45       5.93      10.53
O       5.48       3.92       8.21
O       3.34       5.71       9.95
O       8.85       7.60       8.48
O       6.56       5.42       6.25
O       4.36       6.33       7.50
O       7.69       5.19       8.72
