20

Zn       4.10       5.21       7.84
Zn       1.50       5.54       7.18
C       2.38       2.80       7.41
C       7.00       5.45       7.45
C       2.11       5.33      10.06
C       3.49       5.43       4.96
C       3.22       7.95       7.67
C       8.44       5.30       7.53
N       9.31       5.89       6.79
N       6.13       4.86       8.21
Cl       6.65       3.81       9.44
Cl       8.81       6.96       5.56
O       3.54       3.27       7.64
O       2.05       7.48       7.43
O       1.32       3.49       7.18
O       4.28       7.27       7.85
O       3.34       5.28       9.73
O       2.26       5.50       5.29
O       1.13       5.41       9.24
O       4.46       5.32       5.78
