23

Zn      25.32      16.71      11.90
Zn      26.91      15.78       9.25
Zn      26.92      13.92      11.90
Zn      28.48      16.68      11.91
O      26.90      15.76      11.22
O      29.65      17.21      10.43
O      24.29      15.57      13.13
O      25.32      16.69       8.54
O      28.57      13.49      12.89
O      27.00      13.94       8.53
O      28.05      18.23      13.03
O      26.88      12.64      10.41
O      25.79      18.39      12.81
O      24.14      17.24      10.42
O      29.55      15.55      13.10
O      28.42      16.83       8.54
O      25.31      13.53      12.95
C      29.45      17.27       9.17
C      24.38      14.31      13.35
C      24.33      17.22       9.16
C      29.47      14.30      13.32
C      26.94      12.82       9.15
C      26.92      18.78      13.25
