22

Zn       5.98       5.07       9.71
Zn       3.20       5.14       9.63
C       4.76       7.71       9.62
C       4.43       2.50       9.71
C       4.63       5.07       7.06
C       4.55       5.14      12.27
C       9.72       6.14       8.95
C       9.00       4.07      10.38
C       8.85       6.22      10.23
C       9.87       3.99       9.10
C       8.88       4.96       8.41
C       9.84       5.26      10.92
N       8.02       5.03       9.70
N      10.70       5.18       9.64
O       5.90       7.16       9.67
O       3.29       3.05       9.67
O       3.62       7.15       9.58
O       5.57       3.06       9.75
O       5.75       5.07       7.67
O       3.43       5.14      11.66
O       3.48       5.04       7.61
O       5.70       5.17      11.72
