18

Al       6.52       5.97       5.26
Al       3.19       5.97       5.28
H       4.84       6.75       3.72
H       8.20       4.39       5.95
O       7.03       7.79       5.42
O       9.34       5.82       3.42
O       3.73       4.11       5.34
O       5.97       6.05       7.10
O       5.99       4.11       5.20
O       3.71       6.18       7.11
O       9.29       7.79       5.34
O       7.06       5.89       3.40
O       4.85       6.51       4.66
O       8.18       5.35       5.82
C       8.16       8.37       5.47
C       8.20       5.82       2.84
C       4.87       3.53       5.36
C       4.85       6.21       7.67
