18

Al      -2.97       4.74       7.47
Al       0.37       4.74       7.47
H      -1.29       5.51       9.04
H      -4.64       3.97       5.90
O      -3.56       4.64       9.29
O      -5.72       6.56       7.65
O      -0.13       5.09       5.65
O      -2.47       2.88       7.58
O      -2.38       4.83       5.65
O      -0.22       2.91       7.29
O      -5.81       4.38       9.29
O      -3.47       6.60       7.36
C      -4.68       4.46       9.87
C      -4.61       7.15       7.47
C      -1.26       5.02       5.07
C      -1.33       2.32       7.47
O      -1.30       5.26       8.10
O      -4.64       4.21       6.84
