18

Al       1.59      20.25       0.04
O       2.12      21.81      -0.92
O       1.04      21.40       1.49
O       2.09      19.06      -1.41
O       1.05      18.72       1.10
Al       4.91      20.31      -0.06
O       3.27      20.13       0.79
O       4.37      19.16      -1.51
O       4.38      21.84      -1.11
O      -0.06      20.42      -0.81
O      -1.21      18.75       0.91
O      -1.23      21.50       1.38
H       3.33      19.58       1.58
H       0.00      20.95      -1.62
C       3.21      22.31      -1.32
C       3.23      18.73      -1.87
C      -0.11      18.25       1.31
C      -0.10      21.84       1.85
