24

Al      12.29       7.60      13.06
Al      10.67       4.85      13.46
Al       9.10       7.43      13.40
O      11.36       8.56      11.57
O      12.74       6.27      11.62
O       9.55       4.61      15.00
O      11.70       4.28      12.02
O       8.32       6.53      14.91
O       9.38       8.79      14.62
O       8.05       6.34      12.27
O      10.66       6.61      13.30
O       9.12       8.62      11.98
O      13.77       8.49      12.83
H      14.03       8.64      11.91
C      12.83       5.44      15.08
C       8.78       5.50      15.50
C      10.57       9.09      15.04
C      12.36       5.12      11.29
C       8.36       5.19      11.82
C      10.16       8.80      11.25
O      11.65       8.83      14.44
O      13.06       6.54      14.50
O       9.19       4.38      12.38
O      12.05       4.51      14.64
