19

Co      -4.91       0.29      13.67
C      -2.24       1.45      13.34
C      -2.39      -0.87      13.60
C      -7.58       0.34      14.91
C      -7.45      -0.01      12.60
C      -6.55      -0.16      11.47
C      -4.30      -0.13      10.81
N      -6.84       0.18      13.80
N      -5.22      -0.02      11.79
N      -4.63      -1.60      13.85
N      -5.14       2.21      13.54
N      -4.66       0.66      15.56
N      -2.99       0.35      13.49
C      -5.59      -2.54      14.00
C      -3.32      -1.99      13.74
C      -5.42       2.92      12.43
C      -5.07       2.85      14.74
C      -4.75       1.98      15.87
C      -4.39      -0.23      16.54
