13

N       2.79       9.28       0.32
C       2.87       5.91      -1.53
C       2.09      10.81      -3.83
N       4.79       9.12      -2.29
C       5.60       8.22      -2.95
C       1.37       6.60      -2.94
Zn       2.91       8.89      -1.63
N       1.77      10.17      -2.65
N       2.33       7.03      -2.04
C       2.35      10.42       0.88
C       3.20       8.49       1.37
C       0.48      10.45      -2.42
C       5.45      10.29      -2.33
