9

N      -0.67      12.87       4.24
C       0.31      11.93       0.31
I      -2.23      10.04       2.48
I      -3.36      14.45       2.20
Zn      -1.71      12.54       2.46
N      -0.20      12.92       1.07
C       0.28      14.17       0.92
C       0.67      12.96       4.27
C      -1.35      12.86       5.41
