20

Zn      21.59      10.84       1.39
Zn      21.56      10.84      -1.39
N      21.60      10.83       3.49
N      21.54      10.85      -3.49
O      22.98       9.38       1.04
O      23.05       9.42      -1.22
O      23.05      12.26      -1.22
O      22.98      12.30       1.05
O      20.17      12.30      -1.07
O      20.09      12.25       1.19
O      20.10       9.42       1.19
O      20.17       9.37      -1.08
C      23.42       8.98      -0.08
C      23.43      12.69      -0.08
C      19.72      12.68       0.06
C      19.72       8.99       0.05
C      20.41      10.84       4.14
C      22.71      10.83       4.20
C      22.72      10.85      -4.14
C      20.42      10.85      -4.20
