23

Zn       3.87       7.87       8.72
O       5.66       7.96       7.90
Zn       3.23       6.37      11.47
O       3.55       6.13       9.55
Zn       5.11       4.99       9.31
O       3.80       9.33      10.04
Zn       1.99       5.31       8.72
O       5.88       4.42      11.01
O       6.53       5.90       8.29
O       3.30       8.27      11.98
O       2.57       8.27       7.32
O       4.66       3.36       8.29
O       4.54       5.41      12.56
O       1.44       5.73      11.98
O       1.22       6.44       7.32
O       0.57       4.94      10.04
O       2.44       3.57       7.90
C       6.62       7.09       7.80
C       5.53       4.68      12.21
C       3.55       9.35      11.31
C       0.48       5.17      11.31
C       1.58       7.59       6.90
C       3.55       2.92       7.80
