36

Zn       1.85      -6.26      13.33
Zn       4.37      -8.16      16.41
Zn       1.50      -8.96      15.03
Zn       4.71      -5.33      14.76
C      -0.69      -5.75      14.59
C       0.35      -7.99      11.17
C       5.68      -6.41      12.11
C       2.85      -6.46      18.21
C       3.41     -10.69      13.54
C       1.51     -10.90      17.47
C       3.48      -2.50      14.00
C       3.53     -10.54      18.26
C       3.80      -7.22      11.28
C       1.61      -3.21      13.08
C       3.41      -4.50      17.34
C      -0.99      -7.65      15.69
C       5.33      -9.93      14.31
C      -0.04      -9.82      12.34
C       7.65      -6.09      15.24
C       7.36      -7.98      16.34
N       0.53      -6.23      14.93
N       2.06      -9.91      16.75
N       3.55      -3.84      13.90
N       3.33      -9.68      17.24
N       2.37      -4.28      13.33
N       3.53      -5.43      16.38
N       0.34      -7.41      15.61
N       3.59      -6.90      12.57
N       4.39      -9.02      14.59
N       0.50      -8.91      13.17
N       6.38      -6.11      15.68
N       6.20      -7.29      16.37
N       0.74      -7.77      12.45
N       4.75      -6.40      13.09
N       3.20      -9.49      14.11
N       3.19      -6.64      16.91
