36

Zn      10.56       6.19       6.67
Zn      10.56       3.12       8.55
Zn      13.54       3.72       9.55
Zn      13.54       6.80       7.66
C      12.18       7.20       3.93
C      12.18       0.22       8.20
C      14.14       1.26       8.06
C      14.14       6.60       4.80
C      16.52       6.28       8.17
C      16.52       4.41       9.31
C      10.53       2.18       5.70
C      10.53       4.08       4.54
C       7.73       6.18       7.99
C       7.73       4.29       9.14
C      12.88       5.79      11.60
C      12.88       7.68      10.44
C      12.15       9.80       7.68
C      12.14       2.37      12.22
C      10.13       2.94      11.49
C      10.13       8.89       7.85
N      11.97       6.79       5.19
N      11.97       1.52       8.41
N      13.17       2.18       8.32
N      13.17       6.41       5.73
N      15.28       5.77       8.11
N      15.28       4.59       8.83
N      10.72       3.21       6.55
N      10.72       4.37       5.84
N       8.92       5.59       7.81
N       8.92       4.41       8.53
N      12.94       5.49      10.28
N      12.94       6.65       9.58
N      12.27       8.47       7.54
N      12.27       2.85      10.98
N      11.03       3.20      10.52
N      11.03       7.91       7.65
