18

Ga       5.72       5.04       4.29
Ga       9.14       5.04       4.29
H       7.43       6.24       2.89
H       4.01       3.84       5.71
C       3.96       7.53       4.24
C       4.06       4.70       1.83
C       7.48       2.55       4.35
C       7.38       5.38       6.76
O       5.08       6.95       4.05
O       2.94       4.97       2.37
O       6.36       3.13       4.53
O       8.50       5.11       6.22
O       2.83       6.97       4.43
O       5.19       4.60       2.41
O       8.61       3.11       4.16
O       6.25       5.48       6.18
O       7.43       5.61       3.62
O       4.01       4.47       4.97
