18

Al       1.85      15.29      20.39
O       2.36      16.50      18.94
Al       5.17      15.33      20.33
O       2.40      16.52      21.74
O       5.71      14.12      21.69
O       5.68      14.08      18.93
H       3.50      13.72      19.72
H       0.23      16.75      19.49
O       3.51      14.49      20.31
C       3.48      16.89      18.47
O       0.20      16.15      20.25
C       3.53      16.87      22.20
C       0.18      13.75      22.20
C       0.18      13.63      18.57
O       4.65      16.54      21.69
O       4.62      16.58      18.96
O       1.30      13.94      19.11
O       1.33      14.15      21.83
