19

Zn       6.78       7.64       9.54
Zn       6.66      10.82       9.47
O       6.74       8.48      11.47
O       6.77      10.70       7.47
O       6.37      10.71      11.44
O       8.78       7.80       9.49
O       4.73       9.92       9.28
O       4.75       7.68       9.65
O       8.65      10.07       9.45
C       6.37       9.57      12.00
C       6.99       9.57       6.94
C       6.27       4.78       8.74
C       7.62      13.65      10.12
C       7.81       4.89      10.55
C       5.64      13.64       8.82
C       9.28       8.97       9.47
C       4.18       8.80       9.50
N       6.98       5.49       9.65
N       6.64      12.99       9.46
