44

Zn      15.56       5.60      15.20
Zn      25.07       4.87      15.93
O      13.25       3.12      16.25
C      19.72       6.98      15.37
Zn      12.80       5.09      15.80
Zn      22.31       5.47      15.42
C      10.21       5.04      17.31
C      19.74       4.97      14.02
C      13.89       7.85      14.85
C      23.39       4.52      18.18
C      10.23       3.69      15.30
C      19.64       4.80      16.44
C      10.14       6.11      15.13
N      17.65       5.61      15.20
C      14.49       6.00      18.00
C      23.99       7.67      16.33
N       8.14       4.87      15.94
C      18.18       7.00      15.18
N      20.22       5.57      15.30
N      10.71       4.97      15.90
C       8.68       4.85      17.33
C      18.11       4.95      16.46
O      12.93       7.08      15.19
O      22.44       4.86      17.41
C       8.61       6.13      15.28
C      18.19       4.86      14.04
O      13.30       5.62      17.72
O      22.81       7.39      15.95
C       8.69       3.71      15.20
O      15.41       6.28      17.17
O      24.92       6.84      16.61
O      15.10       7.51      14.63
O      24.60       4.30      17.84
C      24.00       5.82      13.17
O      22.40       3.46      14.89
O      12.89       4.56      13.79
C      23.39       2.67      14.97
O      24.60       2.99      15.25
O      15.09       4.92      13.32
C      13.89       4.64      13.00
O      24.94       5.61      14.00
O      15.43       3.67      15.94
O      22.76       5.92      13.45
C      14.49       2.84      16.15
