23

Zn      10.91       9.10       6.87
Zn      10.93       6.70       9.02
Zn       8.52       6.96       6.87
Zn       8.76       9.08       9.25
C       9.98       7.74      11.61
C       9.60       8.16       4.40
C      13.39       7.76       7.79
C       6.17       8.12       8.20
C       9.61       4.36       7.80
C       9.98      11.55       8.21
O       9.79       7.95       8.01
O      10.48       4.83       8.60
O       9.19      10.98       9.03
O       8.79       5.01       7.07
O      10.72      11.00       7.32
O      12.82       8.65       7.07
O       6.83       8.85       9.02
O      10.74       6.93      10.97
O       8.77       7.37       4.97
O       9.18       8.60      11.13
O      10.48       8.89       4.97
O      12.84       6.94       8.60
O       6.66       7.33       7.32
