19

Fe       7.58      -0.18      10.19
S       7.54      -4.81       9.31
C       4.76       0.09      11.57
C       5.94      -1.72      12.36
S       7.62       4.46      11.06
N       5.88      -0.65      11.54
N       8.82      -0.10      12.02
N       8.03      -2.15      10.02
N       9.28       0.30       8.83
N       6.35      -0.25       8.35
N       7.13       1.80      10.35
C       9.83      -0.97      12.20
C       8.63       0.85      12.96
C       7.82      -3.29       9.72
C      10.40      -0.45       8.81
C       9.22       1.37       8.02
C       5.33       0.62       8.18
C       6.53      -1.20       7.42
C       7.34       2.94      10.65
