18

Mg       0.88       1.05      15.64
Mg       3.16      -0.61      16.38
Mg      -1.40      -0.42      14.58
C      -3.33      -2.72      14.20
O      -2.28      -0.74      17.84
C       1.19      -1.66      14.20
O      -0.69      -0.02      16.44
O       1.78       0.50      17.37
O       0.01      -1.62      13.74
O       1.59      -0.77      15.06
O      -2.78      -1.83      15.04
C      -1.05       2.53      13.84
O       2.29       2.37      15.03
O      -2.97       0.80      15.10
O      -0.50       1.35      14.19
C       3.47       1.99      14.76
C       1.23       0.21      18.56
C      -1.09      -0.32      17.64
