36

Zn       9.57       7.88      21.01
Zn       7.26       5.58      21.28
Zn       4.92       7.84      21.30
Zn       7.20      10.20      21.14
C      11.14      10.20      22.33
C       6.79      10.03      24.18
N      10.04       5.98      20.37
N       5.59       7.18      19.53
N       5.26      10.70      20.62
N       8.65       8.45      19.32
N       6.59       6.25      19.53
N       9.10       4.99      20.59
N       8.98       7.32      22.85
N       9.14      10.75      21.61
N       5.77       8.50      22.98
N       5.44       5.03      22.01
N       4.32       9.69      20.67
N       7.68       9.41      19.37
N       4.44       5.98      22.03
N       7.94       6.45      22.93
N      10.12       9.79      21.55
N       6.71       9.48      22.95
C      10.90       5.52      19.44
C       5.02       7.20      18.32
C       4.77      11.66      19.82
C       9.08       8.34      18.05
C       6.65       5.70      18.31
C       9.39       3.95      19.80
C       9.57       7.41      24.05
C       9.57      11.73      22.43
C       5.27       8.43      24.23
C       5.11       4.06      22.88
C       3.28      10.04      19.90
C       7.51       9.90      18.13
C       3.51       5.57      22.92
C       7.88       5.99      24.20
