24

Eu       5.32       2.54       8.04
Eu       1.78       1.65       7.95
C       4.20      -1.17       5.79
C       7.74       5.36      10.20
C       4.22       1.93      10.67
C       7.77       2.26       5.32
C       2.72       5.20       5.80
C       6.26      -1.01      10.20
C       3.60       4.32       6.59
C       7.15      -0.13       9.41
C       3.42      -0.24       6.63
C       6.96       4.43       9.36
O       3.40       1.97       9.67
O       6.94       2.22       6.32
O       5.45       2.20      10.47
O       1.90       1.99       5.52
O       2.21      -0.48       6.91
O       5.75       4.67       9.09
O       3.98       0.85       7.09
O       7.52       3.34       8.91
O       3.11       3.60       7.55
O       6.65       0.59       8.44
O       4.84       4.24       6.33
O       1.30      -0.05       9.66
