19

N       2.85      10.22       3.29
N       2.48      10.37       6.05
Ga       3.41       8.94       4.84
N       3.75       8.00       6.65
P       6.10      10.45       3.96
P       5.27       6.60       3.64
O       5.09       9.97       5.04
P       0.78       7.03       3.90
H       2.18       9.72       2.70
H       3.73      10.43       2.77
H       3.19      11.05       6.34
H       3.34       7.05       6.61
H       4.76       7.91       6.78
O       1.57       8.11       4.62
O       4.14       7.64       3.62
C       2.24      11.42       3.88
C       1.51      11.06       5.19
C       2.00       9.63       7.23
C       3.17       8.80       7.75
