15

Cu       7.83      10.21      11.66
Cu       9.57       8.24       9.86
Cu       8.54      10.96       8.72
C       5.73      12.21      11.20
N       9.16       7.79      11.60
N       8.65       8.76      12.44
N       6.84      11.54      10.84
N       7.09      11.79       9.51
N       9.93      10.11       7.87
N      10.17       8.79       8.20
C      11.10       8.31       7.35
C      10.72      10.44       6.84
C       8.68       8.28      13.70
C       9.46       6.71      12.35
C       6.12      12.59       9.05
