20

Zn      18.38       4.43      14.10
Zn      18.59       6.51      15.91
C      18.73       3.05      11.50
C      18.23       9.28      16.91
C      17.82       1.67      13.12
C      19.15       7.87      18.50
C      16.72       4.22      16.46
N      18.29       2.88      12.76
N      18.67       8.06      17.26
C      20.25       4.20      16.45
O      17.25       3.52      15.54
O      19.72       5.22      17.01
O      16.90       5.45      16.66
O      20.07       3.83      15.25
O      19.58       5.62      12.98
O      17.39       7.46      14.57
C      20.29       6.56      13.47
C      16.68       6.83      13.71
O      20.22       6.97      14.68
O      16.75       5.58      13.47
