12

Ir       9.05       2.08       5.99
C      10.55       4.76       5.59
Ir      14.20       1.82       4.58
C      10.47       3.36       5.63
C      12.97       4.63       4.93
C      12.92       3.23       4.95
C      11.67       2.68       5.32
C      11.60       1.29       5.31
C      10.30      -0.63       5.54
N      12.73       0.61       4.97
C      12.65      -0.75       4.93
N      10.38       0.72       5.60
