15

Cu      28.47      26.07      28.89
N      31.14      25.37      28.66
N      29.94      25.01      29.23
Cu      31.15      26.59      27.28
Cu      28.56      28.26      26.62
N      27.09      27.29      28.78
N      27.18      28.29      27.84
N      30.03      28.42      25.51
N      31.20      27.83      25.91
C      30.20      24.15      30.24
C      32.13      24.73      29.33
C      26.35      29.29      28.21
C      26.20      27.67      29.72
C      32.21      28.37      25.21
C      30.32      29.32      24.54
