18

Al       3.22       3.61       0.02
O       0.52       2.24      -1.19
O       3.72       4.61       1.57
Al      -0.09       3.64       0.02
O       2.58       2.19       1.16
O       6.06       4.76      -1.47
O       2.72       2.60      -1.53
O       5.91       5.01       1.22
O       3.83       5.03      -1.14
O       0.38       2.55       1.52
H       1.59       5.40       0.30
O       1.57       4.46       0.05
H       4.91       2.01      -0.63
O       4.88       2.78      -0.04
C       1.48       1.97       1.77
C       4.92       5.26      -1.75
C       1.62       2.01      -1.78
C       4.80       5.25       1.78
