18

Al       6.02       5.63       8.41
Al       2.75       5.60       8.39
H       4.36       7.16       7.52
H       7.67       3.95       8.51
O       2.13       7.40       8.38
O       4.39       6.24       7.86
O       7.68       4.83       8.93
C       7.63       7.98       8.64
C       7.73       5.59       6.00
C       4.49       3.21       8.20
C       4.30       5.58      10.81
O       6.54       7.40       8.90
O       2.26       5.35       6.56
O       3.36       3.75       8.42
O       5.40       5.30      10.20
O       5.57       3.81       7.92
O       3.19       5.81      10.23
O       6.66       5.91       6.63
