13

N       4.98       9.28      11.57
C       6.80      10.31      14.83
C       4.36       8.69      10.53
C       8.23      11.26      13.49
C       6.88       5.91      12.11
C       9.22       8.69      10.33
C       4.15      10.30      11.98
N       7.33      10.22      13.59
Zn       6.85       8.91      12.18
N       7.10       7.03      12.82
C       7.49       6.60      14.08
C       7.89      10.29       9.69
N       8.03       9.26      10.61
