12

Cu       1.77       0.96       8.72
O       3.89       0.23       8.67
C       2.78       2.76       6.88
C       1.75       1.02       5.74
N       2.05       1.63       6.89
N       1.26       0.64      10.61
C       4.52      -0.80       8.32
O       2.45       2.76       9.22
C       0.38       1.48      11.17
C       1.67      -0.44      11.29
C       2.99       3.40       8.23
O       1.01      -0.85       8.18
