20

Zn       5.34      -3.07      11.25
Zn       7.27      -4.19       9.43
N       3.92      -2.27      12.58
N       8.67      -5.01       8.08
O       5.56      -4.88      12.22
O       7.08      -5.73      10.80
O       5.59      -4.89       8.45
O       4.10      -3.99       9.88
O       6.90      -2.33       8.58
O       5.43      -1.42      10.01
O       7.13      -2.46      12.10
O       8.65      -3.30      10.67
C       6.36      -5.83      11.86
C       4.37      -4.67       8.82
C       6.14      -1.36       8.93
C       8.36      -2.65      11.75
C       4.00      -0.97      12.99
C       2.87      -3.01      13.02
C       8.52      -6.28       7.60
C       9.73      -4.28       7.64
