20

Zn       4.26       6.31       8.84
Zn       7.02       6.17       8.81
C       5.87       8.82       8.85
C       5.56       6.44      11.44
C       5.52       3.67       8.74
C       5.50       6.43       6.20
C       0.02       6.84       9.60
C       0.15       5.32       7.95
C       1.56       5.43       7.96
C       1.40       6.94       9.63
N      -0.65       6.04       8.77
N       2.20       6.26       8.82
O       4.73       8.28       9.05
O       6.97       8.20       8.71
O       4.47       6.11      10.88
O       6.71       6.47      10.88
O       4.43       4.30       8.52
O       6.65       4.21       8.98
O       4.39       6.63       6.78
O       6.61       6.14       6.73
