11

Cd      22.06       6.48      13.15
N      21.93       6.22      15.36
C      21.20       6.86      16.33
C      24.25       5.00      12.08
C      22.77       5.40      15.99
O      23.34       5.68      11.45
N      22.91       8.60      13.00
C      22.41       9.58      12.18
C      19.77       5.62      11.85
C      24.13       9.02      13.39
O      20.16       6.84      11.90
