9

Cl      17.39       9.61       9.86
N      17.13      13.02      10.08
Zn      16.67      11.44       8.84
N      14.60      11.34       8.89
C      17.80      12.84      11.24
C      16.69      14.26       9.77
C      13.95      10.57       9.78
C      13.89      12.04       7.98
Cl      17.06      12.13       6.77
