13

Zn       5.75       0.28      17.23
C       4.73       0.06      14.78
C       3.67       2.62      17.36
C       5.27       0.12      19.79
O       6.34       0.20      19.04
Zn       3.12      -0.00      17.45
O       2.70      -1.90      17.56
O       4.10       0.08      19.29
C       3.81      -2.52      17.38
O       4.82       2.12      17.17
O       2.60       1.90      17.56
O       3.65       0.08      15.45
O       5.91       0.06      15.35
