23

Zn      19.50       8.97      14.37
Zn      17.84      10.50      16.55
Zn      17.95       7.33      16.61
Zn      16.26       8.86      14.29
O      17.86       8.90      15.44
O      20.68      10.48      14.77
O      18.12      10.07      18.46
O      19.57       6.27      16.31
O      19.27      11.74      16.04
O      20.54       7.32      14.55
O      17.88       7.81      18.52
O      16.40       6.19      16.23
O      16.77       8.81      12.37
O      15.14       7.31      14.71
O      19.01       9.16      12.47
O      16.16      11.47      16.40
O      15.23      10.53      14.56
C      20.36      11.55      15.40
C      17.99       8.96      19.06
C      20.45       6.37      15.39
C      15.38       6.31      15.48
C      17.91       8.99      11.85
C      15.30      11.43      15.46
