10

Al       0.09       7.12       4.11
O       1.16       6.30       2.77
O       1.16       8.71       4.07
O       1.16       6.37       5.51
O      -0.96       7.50       2.57
O      -0.96       5.60       4.56
O      -0.97       8.28       5.21
C       2.10       9.02       4.86
C       2.10       5.53       5.38
C       2.10       6.82       2.10
