20

O       8.23      21.72      20.95
O       8.19      21.72      24.65
Zn       7.11      23.18      21.88
Zn       9.31      23.18      23.72
O       9.99      21.75      22.37
O       6.42      21.75      23.22
O       6.27      24.60      23.09
C       6.88      24.97      24.15
C       9.54      24.97      21.45
O      10.14      24.60      22.51
O       8.03      24.59      24.53
C      11.99      23.77      24.90
C       4.43      23.77      20.70
O       8.39      24.59      21.07
C       9.38      21.35      21.34
C       7.03      21.35      24.26
N       5.59      23.14      20.49
N      10.82      23.14      25.11
C       5.75      22.41      19.36
C      10.66      22.41      26.24
