23

Zn      19.51      11.26       0.66
Zn      21.11      12.19      -1.96
Zn      22.72      11.27       0.66
Zn      21.11      14.04       0.66
O      21.11      12.19       0.00
O      18.39      10.62      -0.82
C      23.68      10.71      -2.09
C      18.55      10.71      -2.09
O      22.26       9.70       1.76
C      21.12       9.23       2.09
C      23.68      13.67       2.09
O      22.70      11.28      -2.69
O      19.98       9.70       1.76
C      18.55      13.67       2.09
O      18.39      12.44       1.76
O      21.11      14.02      -2.69
O      21.11      15.33      -0.83
O      19.53      11.28      -2.69
C      21.12      15.15      -2.09
O      23.84      10.62      -0.83
O      23.84      12.45       1.76
O      19.53      14.42       1.76
O      22.70      14.42       1.76
