14

Zn       3.80       3.71       8.67
Zn       2.29       4.88       6.77
C       1.18       2.54       7.38
C       1.81       5.04       9.85
O       2.17       2.52       8.17
O       0.95       3.46       6.50
O       2.83       4.37      10.25
O       1.53       5.33       8.65
O       4.54       5.58       8.23
C       4.28       6.53       7.42
O       4.99       2.63       7.54
O       3.31       6.53       6.57
O       3.83       3.75       5.94
C       4.71       2.91       6.31
