10

Al       0.57      11.99       6.95
O      -0.48      10.96       8.20
O      -0.48      11.40       5.44
O      -0.49      13.54       7.20
O       1.63      10.40       7.08
O       1.62      12.88       8.26
O       1.62      12.65       5.51
C      -1.44      10.17       7.92
C      -1.44      12.04       4.90
C      -1.42      13.71       8.07
