18

Al       4.10       6.88       8.35
Al       7.43       6.82       8.37
H       5.74       5.28       7.62
H       2.41       8.45       9.01
O       4.66       8.72       8.19
O       6.89       6.83      10.21
O       7.96       5.01       8.62
O       3.59       6.96       6.51
O       5.76       6.23       7.80
O       2.44       7.48       8.92
O       3.56       5.03       8.48
O       1.33       6.75       6.53
C       2.44       4.43       8.59
C       2.44       6.91       5.92
C       5.80       9.28       8.12
C       5.76       6.79      10.80
O       6.91       8.65       8.13
O       4.62       6.86      10.19
