20

Zn       5.76       9.69      23.97
Zn       5.77       6.92      24.23
N       5.79       4.82      24.24
N       5.76      11.77      23.94
O       5.75       9.67      26.06
O       5.26       7.46      26.14
O       7.73       7.22      24.64
O       7.80       9.43      24.11
O       6.12       7.08      22.20
O       5.88       9.33      21.95
O       3.76       9.27      24.01
O       3.75       7.01      23.80
C       5.50       8.59      26.68
C       8.35       8.31      24.41
C       5.97       8.14      21.50
C       3.18       8.14      23.97
C       4.92      12.52      23.24
C       6.11       4.07      25.29
C       5.43       4.19      23.10
C       6.65      12.40      24.74
