13

H       6.57      10.45       8.64
Cd       5.35      11.51       6.16
O       4.43       9.44       5.77
H       7.49      11.81       8.24
O       4.78      13.38       7.63
C       3.64       9.43       6.78
C       5.09      13.23       8.82
C       3.16      13.64       4.99
I       7.74      11.77       4.77
N       3.97      12.63       4.64
C       3.97      12.22       3.35
N       5.83      12.19       9.28
N       6.54      11.42       8.33
