18

Al       0.26      12.67       8.49
Al       3.70      12.73       8.44
O       1.99      11.89       8.44
O      -1.45      13.51       8.44
H       1.99      10.97       8.10
H      -1.42      14.45       8.21
C      -1.46      11.13       6.65
C      -1.50      11.22      10.32
C       1.97      14.18      10.32
C       1.97      14.19       6.60
O      -0.30      11.43       7.09
O       4.27      11.57       9.84
O       3.08      13.98       9.72
O       0.87      13.94       7.17
O       0.83      13.81       9.93
O       3.13      13.86       6.99
O       4.31      11.49       7.13
O      -0.35      11.46       9.84
