20

C       4.37       8.30      28.19
Zn       9.86       8.88      28.71
Zn       7.05       9.14      28.89
C       4.23      10.10      29.68
C      12.66       7.99      27.78
C      12.55       9.51      29.56
N       4.98       9.23      28.95
N      11.93       8.74      28.65
O       9.30       6.93      28.58
O       7.13       7.05      29.19
O       7.15       8.76      26.87
O       9.38       9.11      26.69
O       7.58      11.09      28.51
O       9.79      10.92      28.92
O       9.74       8.71      30.80
O       7.57       9.36      30.85
C       8.19       6.40      28.92
C       8.22       8.94      26.20
C       8.73      11.60      28.71
C       8.65       8.97      31.41
