20

Zn      10.24       8.81       9.61
Zn       7.49       8.74       9.71
C       9.00       6.20       9.26
C       8.70      11.38       9.46
C       4.74       9.21       8.75
C      13.02       8.30      10.51
C       8.93       8.57      12.27
C       8.78       8.76       7.02
C       4.76       7.75      10.53
C      12.91       9.72       8.68
N       5.43       8.56       9.69
N      12.29       8.95       9.59
O      10.12       6.76       9.49
O       7.58      10.80       9.69
O       7.85       6.74       9.40
O       9.84      10.82       9.55
O      10.04       8.72      11.66
O       7.66       8.89       7.62
O       7.78       8.56      11.74
O       9.93       8.81       7.55
