20

Zn       6.07      10.25       8.96
Zn       6.11       7.04       8.83
C       6.24       8.69      11.48
C       6.00       8.62       6.33
C       3.55       8.47       8.94
C       8.62       8.79       8.94
C       5.31      13.09       9.71
C       6.96       4.25       8.01
C       6.78      13.00       7.87
C       5.47       4.25       9.83
N       6.01      12.36       8.80
N       6.23       4.93       8.93
O       6.31       9.87      11.01
O       6.08       7.43       6.76
O       6.07       7.60      10.87
O       5.88       9.70       6.99
O       4.14       9.56       9.20
O       8.03       7.67       8.88
O       4.10       7.34       8.73
O       8.08       9.94       8.91
