10

Al       5.17      11.39       6.93
O       4.13      12.47       5.71
O       4.13      11.91       8.47
O       4.10       9.87       6.64
O       6.23      12.94       6.87
O       6.21      10.49       5.54
O       6.23      10.65       8.33
C       3.15      13.23       6.02
C       3.15      11.26       8.98
C       3.21       9.71       5.73
