20

Zn       8.39       7.69       8.12
Zn       5.59       7.69       8.12
C       7.04       5.09       8.13
C       7.04      10.29       8.11
C       2.86       7.13       9.14
C      11.13       8.72       7.59
C       2.86       8.25       7.10
C      11.13       6.66       8.64
C       6.94       7.68      10.73
C       6.94       7.69       5.50
N       3.54       7.69       8.12
N      10.44       7.69       8.12
O       8.15       5.67       8.37
O       5.94       9.69       8.35
O       8.15       9.71       7.87
O       5.93       5.68       7.89
O       8.05       7.91      10.16
O       5.82       7.93       6.06
O       8.05       7.46       6.07
O       5.82       7.45      10.18
