13

Cu      -1.60       7.85      20.99
C      -3.10       8.26      17.82
P      -0.83       9.83      21.72
N      -3.45       7.59      21.84
C      -0.25       8.23      18.00
P      -1.73       7.51      18.78
Cl      -0.40       6.09      21.90
C      -4.37       8.57      21.84
C       0.97      10.04      21.96
C      -3.71       6.47      22.55
C      -1.33      11.23      20.66
C      -1.69       5.77      18.19
C      -1.47      10.34      23.36
