23

Zn      16.06      16.40      22.39
Zn      17.58      15.43      25.04
Zn      15.83      18.18      25.01
Zn      14.41      15.29      24.94
C      18.64      15.01      22.33
C      18.35      17.84      26.57
C      15.95      19.35      22.32
C      13.27      17.62      26.33
C      13.60      14.81      22.13
C      16.04      13.30      26.36
O      15.97      16.33      24.35
O      17.62      15.45      21.71
O      18.52      16.61      26.33
O      15.82      19.52      23.58
O      18.83      14.98      23.60
O      16.08      18.23      21.71
O      17.46      18.61      26.07
O      14.26      18.42      26.14
O      13.52      14.49      23.36
O      13.15      16.43      25.89
O      14.46      15.57      21.58
O      17.17      13.80      26.04
O      14.88      13.76      26.05
