18

Mg       0.75      16.79       9.27
Mg       3.03      17.09      11.06
Mg      -1.53      18.49       9.91
C       3.34      17.02       8.00
C       1.09      14.78      11.54
O      -2.40      15.94      11.96
O      -0.81      16.72      10.60
O       1.65      15.65      10.69
C       1.06      19.48      10.74
C      -1.19      17.53       7.03
O      -0.13      19.84      10.45
O       1.46      18.28      10.46
O      -2.90      18.89      11.34
C      -1.22      15.87      11.50
O       2.15      16.59       7.83
O      -3.09      17.37       9.18
O      -0.63      17.83       8.21
C      -3.47      20.06      11.67
