23

Zn       7.95       7.80       7.49
Zn      10.06       7.62       9.90
Zn       7.88       9.93       9.94
Zn      10.22      10.00       7.74
C      12.60       8.78       9.01
C       5.47       9.10       8.44
C       8.96       5.25       8.51
C       9.21      12.40       9.05
C       8.75       8.58      12.37
C       9.43       8.87       5.14
O       9.01       8.85       8.77
O       8.13       5.86       7.74
O       9.82      11.89       8.05
O      11.96       8.09       9.87
O       6.00       9.78       9.38
O      12.09       9.49       8.07
O       6.06       8.35       7.61
O       9.80       5.79       9.29
O       8.55      11.78       9.95
O       9.51       7.75      11.79
O      10.07       9.77       5.78
O       7.90       9.36      11.83
O       8.56       8.08       5.64
