20

Co       4.75      10.14       9.19
Co       4.75      11.71      10.88
C       2.13      10.93      10.03
N       4.84       8.42       7.85
N       4.84      13.43      12.22
N       4.13       7.31       8.15
N       4.13      14.55      11.92
O       4.67      13.16       9.43
O       4.67       8.70      10.64
O       4.80      11.59       7.81
C       4.77       9.05      11.87
C       4.77      12.81       8.20
O       4.80      10.27      12.26
O       6.77      10.11       9.26
O       6.77      11.75      10.81
O       2.73      10.16       9.20
O       2.73      11.69      10.87
C       5.54       8.12       6.75
C       5.54      13.73      13.32
C       7.37      10.93      10.03
