10

Al       1.21      17.57      10.17
O       2.32      18.55       8.96
O       2.32      18.13      11.64
O       2.33      16.04       9.94
O       0.09      19.11       9.96
O       0.10      16.60       8.94
O       0.09      16.98      11.61
C       3.32      17.58      12.20
C       3.32      15.81       9.17
C       3.32      19.32       9.15
