24

Al      18.46      10.26      28.29
Al      15.24      10.19      28.38
Al      16.71       7.57      28.41
C      16.55      11.59      26.39
C      14.74       8.21      26.43
C      18.67       7.82      26.53
C      16.59      11.76      30.20
C      14.56       8.06      30.19
C      18.70       8.04      30.32
O      15.46       7.31      26.98
O      17.95       6.97      27.19
O      19.04       9.14      29.81
O      17.71      11.52      29.67
O      15.43      11.45      29.74
O      14.26       9.20      29.70
O      15.34       7.20      29.65
O      17.87       7.19      29.82
O      16.78       9.33      28.38
O      19.03       8.95      26.95
O      17.71      11.27      26.79
O      15.46      11.50      27.08
O      14.31       9.26      27.02
H      20.37      11.38      29.04
O      19.97      11.13      28.20
