18

Al       6.61       5.73       7.37
Al       3.19       5.77       7.39
H       4.92       6.65       5.87
H       8.31       5.03       8.97
O       7.14       7.57       7.37
O       9.45       5.46       5.61
O       3.77       3.95       7.59
O       6.02       5.83       9.23
C       8.28       8.14       7.44
C       8.34       5.37       5.01
C       4.90       3.36       7.56
C       4.89       5.95       9.78
O       6.04       3.91       7.41
O       3.78       6.15       9.19
O       9.41       7.59       7.30
O       7.19       5.46       5.54
O       4.90       6.27       6.76
O       8.32       5.25       8.02
