24

Al      19.88      12.46      26.15
Al      18.38       9.66      26.59
Al      16.71      12.17      26.56
H      21.87      13.59      26.63
C      20.54      10.29      28.18
C      16.52      10.26      28.69
C      18.13      13.91      28.16
C      20.04      10.00      24.41
C      16.03       9.88      25.02
C      17.70      13.55      24.38
O      16.03      11.30      28.13
O      16.96      13.61      27.69
O      18.90      13.43      24.75
O      20.35      11.18      24.72
O      19.44       9.14      25.16
O      16.93       9.12      25.51
O      15.66      11.00      25.52
O      16.65      13.28      25.08
O      18.31      11.41      26.45
O      19.24      13.63      27.63
O      20.75      11.38      27.59
O      19.76       9.34      27.79
O      17.27       9.39      28.13
O      21.31      13.42      25.87
