12

Ag       3.30       3.33       1.27
N       5.09       4.77       1.72
N       4.68       1.37       1.19
O       2.51       3.13       3.40
C       4.93       6.09       1.56
C       2.66       3.95      -2.18
C       0.72       2.36      -0.90
C       4.96       0.66       2.30
C       5.09       0.88       0.01
C       1.46       2.39       3.51
S       1.80       3.81      -0.57
C       6.32       4.32       2.05
