13

C       8.26      -0.87      10.83
In       6.33       0.01      12.48
O       4.69       0.38      14.07
C       8.26       0.89      14.13
C       4.40       0.88      10.83
C       4.40      -0.87      14.13
O       7.54      -1.71      11.47
O       7.54       1.72      13.49
O       5.12       1.72      11.47
O       5.12      -1.71      13.49
O       7.97       0.38      10.89
O       7.97      -0.36      14.07
O       4.69      -0.36      10.89
