18

O       5.98      21.55       1.54
O       7.12      23.26      -0.17
Al       8.78      22.46       0.02
Al       5.45      22.48      -0.05
C       3.79      24.43       1.42
C       3.76      23.67      -2.12
H       3.82      20.81       0.57
H       7.14      24.18      -0.45
C       7.12      20.52      -1.45
C       7.09      21.27       2.09
O       4.91      23.42      -1.64
O       9.31      23.96       1.11
O       8.25      21.50       1.61
O       9.31      23.38      -1.57
O       8.25      20.97      -1.06
O       4.91      23.98       1.02
O       3.79      21.68       0.15
O       5.98      20.99      -1.14
