24

Al      13.55       8.16      14.71
Al      12.06       5.39      15.15
Al      10.43       7.89      15.23
O      12.91       9.39      16.03
O      10.64       4.92      13.99
O       9.39       6.78      14.09
O      10.36       9.10      13.82
O      12.00       7.13      15.02
O      14.41       7.09      16.09
H      15.53       9.14      13.82
C      14.19       6.05      16.81
O      13.44       5.08      16.36
O      10.94       5.01      16.64
O       9.71       6.92      16.70
O      10.72       9.22      16.50
O      12.56       9.07      13.26
O      14.08       6.92      13.28
O      13.15       4.88      13.73
O      14.98       9.21      14.61
C      10.19       5.87      17.23
C      11.92       9.59      16.81
C      13.74       5.74      12.96
C       9.76       5.72      13.46
C      11.34       9.26      12.99
