20

Zn       5.82       5.96       8.61
Zn       5.55       8.78       8.62
C       5.63       7.39       5.99
C       4.58      11.32       7.55
C       6.78       3.42       9.68
C       3.09       7.21       8.72
C       8.27       7.52       8.51
C       5.74       7.35      11.24
C       5.59      11.72       9.61
C       5.77       3.02       7.62
N       5.27      10.86       8.61
N       6.09       3.88       8.62
O       5.84       6.29       6.59
O       5.52       8.45      10.65
O       5.38       8.51       6.56
O       5.98       6.23      10.68
O       3.80       6.16       8.79
O       7.56       8.58       8.44
O       3.50       8.42       8.64
O       7.86       6.32       8.60
