20

Zn       5.74       7.92       9.32
Zn       5.78       7.92       6.57
C       3.94       6.02       7.95
C       7.58       6.02       7.94
C       7.58       9.82       7.94
C       3.94       9.82       7.95
C       7.05       7.92      11.96
C       4.48       7.92       3.93
C       4.73       7.92      12.15
C       6.80       7.92       3.75
N       5.84       7.92      11.38
N       5.69       7.92       4.51
O       4.32       6.47       6.82
O       7.20       6.47       9.08
O       7.20       9.37       9.08
O       4.32       9.37       6.82
O       4.31       6.47       9.09
O       7.22       6.47       6.81
O       7.22       9.38       6.81
O       4.31       9.38       9.09
