18

Zn       4.66       7.56       8.40
Zn       7.47       7.53       8.43
O       4.91       5.52       8.46
O       7.13       5.59       9.00
O       4.85       7.54       6.38
O       7.06       7.01       6.50
O       5.05       9.58       8.35
O       7.29       9.51       7.92
O       5.02       7.64      10.43
O       7.24       8.15      10.40
C       6.04       5.00       8.72
C       6.00       7.33       5.87
C       6.19      10.10       8.12
C       6.11       8.02      10.96
C       1.51       7.62       8.81
C      10.65       7.38       8.45
N       2.64       7.69       8.61
N       9.50       7.46       8.37
