24

Zn      11.31       1.71      11.24
Zn      15.00       1.14      11.63
N       8.41       3.18      11.68
N      17.89      -0.34      11.19
N       9.63       3.29      11.09
N      16.67      -0.45      11.78
N      10.06       0.92      12.76
N      16.24       1.93      10.11
N       8.78       1.26      13.06
N      17.52       1.58       9.81
O      14.34       0.28      13.34
O      11.96       2.57       9.53
O      13.96       0.01      10.32
O      12.34       2.83      12.55
O      11.85      -0.26      11.09
O      14.46       3.10      11.78
C      15.14       0.72      14.26
C      11.17       2.12       8.61
C      12.97      -0.71      10.68
C      13.34       3.55      12.19
C       9.74       4.57      10.73
C      16.57      -1.73      12.15
C      10.52       0.26      13.83
C      15.78       2.58       9.04
