24

Mn       3.42      20.04       8.23
Mn       3.42      18.18       5.01
C       2.82      19.29       2.31
C       2.82      22.93       8.62
C       4.01      18.93      10.93
C       4.01      15.29       4.62
C       4.22      19.82       2.62
C       4.22      22.93       8.01
C       2.62      18.40      10.62
C       2.62      15.29       5.24
C       6.02      21.74       7.22
C       0.82      18.31       9.20
C       0.82      16.48       6.02
C       6.02      19.91       4.04
N       4.78      21.75       7.75
N       2.05      18.77       9.47
N       2.05      16.48       5.49
N       4.78      19.45       3.77
Cl       4.82      18.27       7.11
Cl       2.02      19.95       6.14
O       2.30      21.80       8.84
O       4.53      19.68      10.06
O       4.53      16.42       4.41
O       2.30      18.54       3.18
