9

Ga      -2.88      -1.38       6.34
O      -1.66      -0.01       6.76
P      -1.61      -3.71       7.72
P      -2.88      -3.03       3.96
O      -4.63      -0.67       6.35
P      -0.78       0.14       8.04
P      -5.27       0.15       7.54
O      -2.33      -1.68       4.59
O      -2.81      -2.66       7.69
