20

Zn       8.62       6.85       7.90
Zn       5.65       6.70       7.99
C       6.94       9.31       7.55
C       7.33       4.24       8.33
C       2.95       5.73       9.12
C      11.33       7.82       6.76
C       2.72       7.06       7.23
C      11.56       6.49       8.66
C       7.20       6.23       5.41
C       7.08       7.32      10.48
N      10.75       7.10       7.79
N       3.52       6.45       8.09
O       8.09       8.77       7.43
O       6.19       4.78       8.46
O       5.83       8.70       7.63
O       8.45       4.85       8.25
O       8.37       6.36       5.88
O       5.90       7.19      10.00
O       6.11       6.18       6.05
O       8.17       7.37       9.83
