20

Zn       7.91       9.23       6.52
Zn       7.93       6.17       6.71
C       8.08       7.76       4.05
C      10.57       7.45       6.33
C       8.44       3.71       5.36
C       8.32       7.76       9.08
C       6.74       3.33       6.92
C       9.40      11.79       6.67
C       7.23      11.86       7.55
C       5.36       7.89       6.56
N       8.24      11.18       6.93
N       7.70       4.14       6.38
O       8.10       8.96       4.50
O       7.76       6.74       4.73
O       9.95       8.54       6.56
O      10.05       6.32       6.16
O       7.82       8.79       8.55
O       8.62       6.66       8.50
O       5.87       9.03       6.33
O       5.96       6.83       6.88
