23

Zn       7.55       8.96      15.58
Zn       7.37      10.76      18.25
Zn       9.02      11.82      15.72
Zn       5.85      11.70      15.61
O       7.45      10.80      16.29
O       7.53       7.63      17.02
O       8.89      11.71      19.04
O      10.24      10.73      14.65
O       7.39       8.91      18.91
O       9.20       8.69      14.55
O      10.07      12.48      17.26
O       8.57      13.41      14.66
O       4.82      10.53      14.39
O       6.29      13.30      14.55
O       6.03       8.60      14.38
O       5.73      11.60      18.91
O       4.62      12.26      17.02
C       7.46       7.80      18.29
C       9.87      12.34      18.53
C      10.16       9.51      14.29
C       7.42      13.83      14.29
C       5.04       9.31      14.01
C       4.75      12.14      18.29
