15

C      -4.34      17.76       0.05
C      -2.27      17.07       0.48
C      -6.97      12.83      -3.91
C      -7.66      14.76      -3.06
Cu      -5.25      15.53      -1.60
Cu      -2.30      14.53      -0.99
C      -0.53      12.28      -1.57
Cu      -4.26      12.77      -2.81
C      -1.89      11.06      -2.84
N      -2.87      16.14      -0.29
N      -4.15      16.57      -0.55
N      -6.40      14.54      -2.65
N      -5.97      13.35      -3.18
N      -2.55      12.17      -2.46
N      -1.71      12.93      -1.67
