23

Zn      18.29       7.26       8.82
Zn      16.83       4.37       8.69
Zn      18.52       5.50       6.18
Zn      20.00       4.52       8.87
O      18.41       5.42       8.14
O      16.65       7.52       9.86
O      15.92       3.60       7.12
O      18.64       7.35       5.52
O      15.57       5.50       9.68
O      18.29       8.61       7.40
C      15.68       6.71      10.09
C      18.46       8.45       6.13
O      16.84       4.80       5.42
C      20.77       6.95      10.39
O      19.80       7.68      10.01
O      20.08       4.54       5.50
O      17.29       2.83       9.82
C      21.07       4.05       6.15
C      16.03       3.95       5.90
O      21.21       3.99       7.42
C      18.44       2.39      10.17
O      20.99       5.74      10.06
O      19.57       2.91       9.90
