24

Al       1.36       0.85       0.57
Al       4.54       0.97       0.12
Al       3.02       3.57       0.18
H      -0.43      -0.59       0.15
C       3.01      -0.69      -1.46
C       4.81       2.94      -1.96
C       0.82       3.07      -1.41
C       3.51      -0.38       2.30
C       5.38       3.17       1.71
C       1.30       3.28       2.34
O       0.60       1.94      -0.90
O       1.95      -0.41      -0.84
O       4.21      -0.39      -1.09
O       5.26       1.87      -1.42
O       4.08       3.82      -1.40
O       1.60       3.98      -0.93
O       0.89       2.16       1.95
O       2.31      -0.11       2.02
O       4.54      -0.22       1.54
O       5.66       2.03       1.20
O       4.53       4.00       1.21
O       2.05       4.10       1.68
O       2.99       1.81       0.28
O      -0.13      -0.03       0.87
