15

N      20.59      24.48      23.48
N      22.93      24.61      20.65
N      23.69      23.52      20.28
Cu      21.48      21.89      23.80
Cu      23.56      22.00      21.32
Cu      21.83      24.51      22.12
C      22.69      19.25      24.03
C      24.12      19.32      22.35
C      19.64      25.37      23.83
C      19.34      23.53      25.03
C      24.29      23.81      19.10
C      23.06      25.55      19.70
N      23.43      20.48      22.36
N      22.54      20.43      23.40
N      20.40      23.34      24.22
