23

Zn      16.05      16.28      22.36
Zn      17.57      15.40      24.99
Zn      15.70      18.06      25.05
Zn      14.35      15.28      24.94
C      18.65      14.93      22.29
C      18.21      17.74      26.64
C      15.90      19.22      22.37
C      13.15      17.55      26.39
C      13.49      14.84      22.12
C      15.98      13.29      26.30
O      15.93      16.25      24.32
O      17.70      15.50      21.65
O      18.64      16.74      26.00
O      15.90      19.37      23.64
O      18.75      14.79      23.56
O      15.88      18.12      21.72
O      17.00      18.18      26.59
O      14.08      18.39      26.09
O      13.14      15.13      23.32
O      13.12      16.32      26.05
O      14.62      15.13      21.61
O      17.09      13.90      26.14
O      14.83      13.63      25.83
