23

Zn       7.55       8.96      15.57
Zn       7.35      10.75      18.25
Zn       9.01      11.81      15.70
Zn       5.85      11.71      15.61
O       7.44      10.80      16.28
O       7.52       7.63      17.02
O       8.87      11.71      19.05
O      10.24      10.73      14.65
O       7.38       8.91      18.91
O       9.20       8.69      14.54
O      10.05      12.46      17.26
O       8.57      13.41      14.65
O       4.83      10.53      14.40
O       6.28      13.30      14.55
O       6.03       8.59      14.38
O       5.72      11.60      18.91
O       4.62      12.27      17.02
C       7.45       7.80      18.28
C       9.85      12.33      18.54
C      10.15       9.51      14.28
C       7.41      13.83      14.28
C       5.04       9.30      14.01
C       4.74      12.14      18.29
