19

Nd      16.05       9.27      10.97
O      19.46      10.39      13.23
O      13.37      11.66      13.23
O      15.32       5.75      13.23
N      18.50      10.04      12.54
N      15.50       6.76      12.54
N      14.15      11.00      12.54
O      15.98      11.24       9.65
O      17.79       8.34       9.65
O      14.37       8.22       9.65
O      18.12      10.72      11.52
O      16.28       6.75      11.52
O      13.76      10.33      11.52
C      15.03      11.99       9.14
C      18.92       8.79       9.14
C      14.20       7.03       9.14
O      17.83       8.97      12.80
O      14.91       7.88      12.80
O      15.42      10.95      12.80
