36

Zn      -1.93      12.67      21.63
Zn      -4.63      14.56      21.77
Zn      -4.69      14.71      25.03
Zn      -1.91      12.74      24.91
C      -3.18      17.19      22.22
C      -0.46       9.94      22.13
C       0.05      14.93      24.33
C      -7.50      15.83      24.35
C      -3.12      17.20      24.43
C      -0.59       9.95      24.32
C       0.11      14.88      22.12
C      -7.55      15.61      22.15
C      -1.59      14.21      27.65
C      -5.72      12.02      26.06
C      -3.54      15.38      19.09
C      -4.05      10.60      21.77
N      -2.52      13.61      19.93
N      -4.83      12.61      22.17
N      -3.48      14.82      26.72
N      -3.74      11.89      25.12
N      -3.48      15.95      22.66
N      -0.88      11.16      22.51
N      -0.99      14.19      23.90
N      -6.30      15.37      23.95
N      -3.44      15.95      24.01
N      -0.97      11.17      23.88
N      -0.95      14.16      22.54
N      -6.33      15.24      22.59
C      -1.76      14.09      18.92
N      -2.43      13.99      26.60
N      -4.80      12.70      25.33
C      -5.89      11.83      21.88
N      -3.64      14.41      20.02
N      -3.70      11.85      22.10
C      -3.31      15.57      27.84
C      -3.98      10.70      25.71
