22

Zn       5.51       5.35      14.04
Zn       2.69       5.18      14.00
C       4.26       2.71      13.89
C       3.98       7.82      14.03
C       4.04       5.28      16.61
C       4.11       5.26      11.43
C       9.33       5.14      12.77
C       8.42       5.43      15.27
C       8.52       6.34      13.30
C       9.23       4.22      14.73
C       8.34       4.18      13.46
C       9.41       6.38      14.57
N       7.53       5.38      14.01
N      10.22       5.18      14.03
O       5.34       3.33      13.66
O       2.89       7.22      13.76
O       3.13       3.20      14.21
O       5.09       7.32      14.36
O       5.14       4.98      16.06
O       3.00       4.91      11.96
O       2.93       5.48      16.02
O       5.12       5.71      12.04
