23

Zn       8.57       9.25      10.82
Zn       8.51      11.35       8.40
Zn      10.66       9.03       8.36
Zn      10.94      11.32      10.60
C       9.52      10.20       5.92
C       9.55       6.67       9.77
C       9.94      10.37      13.19
C       9.82      13.79       9.43
C      13.25      10.07       9.28
C       6.10      10.39       9.71
O       9.68      10.25       9.55
O       8.98      11.19       6.50
O       8.83       7.32      10.60
O       9.07       9.60      12.70
O       8.82      13.25       8.87
O      10.29       7.16       8.85
O      10.10       9.21       6.48
O      10.73      13.22      10.12
O      10.70      11.18      12.55
O      12.59       9.42       8.40
O       6.64      10.83       8.64
O       6.72       9.90      10.71
O      12.77      10.72      10.27
