23

Zn      16.16       9.36       1.14
Zn      17.88      10.89      -1.04
Zn      17.81       7.71      -0.97
Zn      19.41       9.29       1.32
O      17.84       9.32       0.14
O      15.08      10.96       0.79
O      18.08      10.41      -2.94
O      16.22       6.59      -0.74
O      16.22      11.93      -0.92
O      15.01       7.82       0.73
O      17.90       8.15      -2.88
O      19.34       6.59      -0.51
O      18.85       9.31       3.22
O      20.58       7.72       1.02
O      16.58       9.30       3.06
O      19.36      12.08      -0.55
O      20.52      10.89       0.99
C      15.26      11.87      -0.09
C      18.00       9.26      -3.49
C      15.20       6.80      -0.01
C      20.37       6.74       0.22
C      17.67       9.31       3.71
C      20.36      11.89       0.22
