23

Zn      20.01       8.26      23.71
Zn      23.23       8.38      23.87
Zn      21.51       7.26      26.34
Zn      21.73       5.53      23.69
O      18.82       8.80      25.17
O      21.62       7.36      24.39
O      20.47       9.87      22.69
O      24.24       9.02      25.43
C      18.93       8.69      26.44
C      21.63       4.30      26.37
C      21.61      10.39      22.43
C      24.01       8.83      26.67
O      21.51       5.42      26.99
O      20.20       5.11      22.52
O      21.73       4.15      25.09
O      19.01       7.05      22.51
O      19.91       8.13      27.08
O      23.37       5.24      22.66
O      22.76       9.95      22.80
C      19.22       5.85      22.16
C      24.34       6.04      22.42
O      23.04       8.17      27.17
O      24.44       7.26      22.81
