24

Al      19.49      12.93      25.99
Al      18.15      10.07      26.51
Al      16.35      12.47      26.42
O      15.69      11.64      28.01
O      16.56      13.96      27.50
O      18.41      13.87      24.65
O      19.97      11.67      24.52
O      19.32       9.58      25.15
O      16.79       9.42      25.39
O      15.37      11.20      25.44
O      16.17      13.54      24.91
O      17.98      11.81      26.32
O      18.83      14.05      27.49
O      20.48      11.90      27.37
O      19.49       9.88      27.78
O      16.99       9.77      28.01
O      20.85      13.97      25.62
H      21.53      14.04      26.30
C      20.28      10.86      28.08
C      16.20      10.61      28.55
C      17.71      14.29      28.00
C      19.80      10.44      24.31
C      15.81      10.11      24.92
C      17.22      13.91      24.25
