11

C      18.46       1.28       2.46
N      20.78       0.06      -0.82
C      21.51      -0.58      -1.79
Cd      20.65      -0.20       1.39
O      19.37       0.61       3.09
C      19.94       0.88      -1.45
C      22.94       0.66       2.69
N      19.80      -2.32       1.54
C      20.30      -3.30       2.35
O      22.55      -0.56       2.64
C      18.58      -2.73       1.15
