36

C       4.62      12.55       0.67
Zn       5.80      10.80      -0.80
Zn       2.99      11.54      -3.04
Zn       8.22       8.17       0.80
Zn       2.62       7.43       3.04
C       0.56       5.57       2.58
C       8.38      10.60       2.69
C       9.88      10.10       4.11
C       4.25       9.10       1.20
C       5.47       7.50       1.92
N       2.26      11.68      -4.95
N       4.13       9.84      -3.20
N       5.10       9.52      -2.28
N       7.79      10.72      -1.13
N       8.56       9.68      -0.68
N       9.81      10.97      -1.98
N       3.34       7.29       4.95
N       9.89       9.13       3.20
N       8.92       9.45       2.28
N       6.23       8.25       1.13
N       5.46       9.29       0.68
N       4.21       8.00       1.98
O       9.95       7.23       0.19
O       3.79      13.29      -2.82
O       4.07      11.74      -0.19
O       1.82       5.68       2.82
C       2.83      12.46      -5.91
C       1.33      10.97      -5.63
C       9.40       6.42      -0.67
C       5.05      13.40      -2.58
C       5.64       8.37      -2.68
C       4.14       8.88      -4.11
C       9.77       9.87      -1.20
C       8.55      11.48      -1.92
C       2.77       6.51       5.91
C       4.28       8.00       5.63
