18

Al       1.50       4.67       5.73
O       4.38       3.53       6.97
Al       4.97       4.71       5.59
O       4.38       3.52       4.21
O       0.91       5.87       7.11
O       0.90       5.85       4.35
H       3.20       6.46       5.49
H      -0.27       2.92       5.83
O       2.11       3.54       7.15
O       2.12       3.40       4.45
C       3.28       3.28       7.57
C       3.21       3.20       3.82
C      -0.20       6.11       3.75
C      -0.26       6.18       7.50
O      -1.36       5.85       4.17
O      -1.35       5.98       6.87
O       3.23       5.51       5.65
O      -0.24       3.88       5.67
