26

Zn      17.20      17.40       1.15
O      18.18      13.90       1.01
C      19.65      19.57       0.33
C      15.71      20.06       1.87
O      17.89      17.51       3.11
Zn      17.13      14.46       2.60
Zn      17.41      20.47      -0.40
O      18.15      15.42       3.96
O      15.82      15.74       1.65
C      18.71      14.81       0.28
O      19.55      20.60      -0.42
O      18.58      19.00       0.75
O      16.24      20.95       1.11
O      15.77      18.81       1.70
O      16.80      19.31      -1.87
O      16.40      17.34      -0.80
C      16.37      18.11      -1.81
C      16.51      12.57       4.75
C      18.26      16.70       4.00
C      17.40      11.51       2.88
C      14.82      15.62       2.49
C      17.08      23.44      -0.78
C      17.52      22.30      -2.75
N      16.98      12.63       3.49
N      17.27      22.28      -1.42
O      18.62      16.06       0.46
