23

Zn      14.69      16.57      13.82
Zn      15.98      19.34      13.68
Zn      17.85      16.75      13.95
Zn      16.05      17.67      16.48
C      13.31      18.88      12.88
C      16.45      15.71      11.61
C      14.19      15.41      16.37
C      18.84      19.35      13.08
C      15.29      20.43      16.41
C      18.15      15.58      16.58
O      16.20      17.60      14.54
O      14.42      19.34      12.44
O      13.18      17.80      13.56
O      17.55      15.84      12.23
O      15.27      15.90      12.07
O      14.46      16.52      16.95
O      14.30      15.16      15.12
O      19.13      18.23      13.60
O      17.67      19.80      12.80
O      15.80      19.49      17.13
O      15.31      20.49      15.14
O      18.39      15.47      15.34
O      17.55      16.55      17.16
