32

Nd       0.01       6.32       9.75
Nd       4.27       5.86       9.75
H       0.16       3.47      11.12
H      -0.14       3.48       8.36
H       4.12       8.71       8.37
H       4.43       8.71      11.13
H       1.67       3.79      10.73
H      -1.65       3.79       8.76
H       2.61       8.39       8.76
H       5.94       8.39      10.73
C       0.01       9.29       9.74
C       4.27       2.90       9.75
C       1.75       6.97      12.09
C      -1.73       6.97       7.41
C       2.53       5.22       7.40
C      -2.51       5.21      12.09
O      -1.05       8.66      10.07
O       1.07       8.65       9.42
O       5.33       3.53       9.42
O       3.21       3.53      10.08
O       0.50       7.12      12.08
O      -0.47       7.12       7.41
O       3.79       5.06       7.41
O       4.76       5.06      12.08
O       2.36       6.63      11.00
O      -2.34       6.63       8.49
O       1.92       5.55       8.49
O      -1.90       5.55      11.00
O       0.81       4.19      11.03
O      -0.79       4.19       8.47
O       3.47       7.99       8.47
O       5.07       7.99      11.03
