23

Zn       0.09      -0.75       1.41
Zn      -0.62       2.29       1.05
Zn      -1.59       0.27      -1.16
Zn       1.56       0.95      -0.88
O      -0.12       0.67       0.05
O      -0.24       1.91       2.95
O      -0.97      -0.24       3.00
O      -2.10      -1.62      -0.81
O      -0.42      -2.42       0.49
O       3.01      -0.06      -0.02
O       2.00      -0.83       1.88
O      -3.20       1.35      -0.89
O      -2.59       2.13       1.16
O       1.92       2.92      -0.83
O       0.09       3.86       0.15
O       1.40       0.40      -2.76
O      -0.86       0.17      -2.97
C      -0.89       0.94       3.48
C      -1.35      -2.55      -0.37
C       3.01      -0.63       1.13
C      -3.45       1.90       0.24
C       1.16       3.90      -0.55
C       0.34       0.05      -3.39
