38

Zn       1.53      14.83      13.65
Zn       7.57      14.83      13.65
Zn       4.55      13.79      14.78
Zn       4.55      15.84      12.55
Zn      -1.48      15.88      12.51
Zn      -1.48      13.82      14.74
H       3.31      13.51      12.51
H       5.79      16.08      14.87
H      -0.24      16.15      14.78
H      -2.73      13.59      12.43
C       2.51      14.44      16.63
C       0.38      11.92      13.77
C       6.59      11.89      14.29
C      -3.35      14.95      16.56
C       0.55      15.23      10.66
C       2.68      17.74      13.52
C      -3.52      17.78      13.00
C       6.42      14.72      10.73
O       3.45      14.23      13.15
O       1.65      14.33      15.72
O       3.78      14.24      16.48
O      -0.64      12.09      14.54
O       0.99      12.84      13.15
O       5.65      15.38      14.20
O       7.45      12.81      14.32
O       5.32      12.05      14.47
O      -2.33      14.17      16.45
O       8.11      15.49      15.59
O      -0.38      15.43      14.15
O       1.42      15.33      11.58
O      -0.71      15.43      10.81
O       3.71      17.57      12.76
O       2.07      16.83      14.14
O      -2.59      14.28      13.09
O       7.68      16.85      12.98
O      -2.25      17.61      12.82
O       5.39      15.49      10.84
O       7.02      14.17      11.70
