48

Cu       6.98      12.27       9.33
Cu       0.61       9.84       7.27
Cu       6.04       8.74       8.56
Cu       1.55      11.17      10.63
Cu       3.80      11.09       8.26
Cu       9.23       9.92       9.64
Cu       9.23      12.35       6.78
Cu       3.80       8.66      11.12
C       5.41      11.49       5.67
C       2.19      13.59       7.46
C       7.62       9.52      12.23
C      10.84       7.42      10.44
C       6.76      11.76       5.30
C      11.70      13.91       7.12
C       6.27       9.24      12.60
C      12.19       7.10      10.77
N       5.45      12.17      10.50
N       2.15       8.71       7.56
N       7.58       8.84       7.40
N      10.88      12.30      10.34
N       4.25      11.73      10.06
N       3.34       9.21       7.91
N       8.77       9.28       7.84
N       9.68      11.80       9.98
N       3.34      11.73      11.04
N       4.26       8.24       8.07
N       9.69       9.28       6.86
N       8.77      12.76       9.82
N       5.34      11.58       7.03
N       2.26      12.22       7.58
N       7.69       9.43      10.86
N      10.77       8.79      10.32
N       6.55      11.91       7.47
N       1.05      11.74       7.33
N       6.48       9.10      10.42
N       1.12       9.27      10.57
N       7.43      12.02       6.46
N      11.02      12.72       7.05
N       5.59       8.99      11.44
N       2.00       8.29      10.84
C       5.31      12.44      11.84
C       2.28       7.35       7.50
C       7.71       8.57       6.06
C      10.74      13.66      10.40
C       3.96      12.16      12.19
C       3.64       7.04       7.83
C       9.07       8.85       5.71
C       9.39      13.97      10.07
