20

Zn       6.71       6.46      23.24
Zn       3.90       6.47      23.23
C       5.31       3.86      23.34
C       5.26       6.33      20.57
C       5.35       9.07      23.14
C       5.29       6.65      25.90
C       9.56       7.04      24.13
C       1.04       5.87      22.37
S       9.59       5.60      22.05
S       1.01       7.32      24.44
N       8.76       6.42      23.25
N       1.84       6.49      23.24
O       6.44       4.46      23.40
O       4.16       4.45      23.26
O       4.10       6.32      21.11
O       6.37       6.33      21.19
O       4.22       8.46      23.13
O       6.50       8.49      23.09
O       6.43       6.72      25.30
O       4.16       6.53      25.30
