23

Zn       9.21       3.47       4.41
Zn      10.81       6.24       4.41
Zn       9.21       5.32       1.80
Zn       7.61       6.24       4.41
C      11.77       3.84       5.85
C       6.65       6.80       1.67
C       6.65       3.84       5.85
C      11.77       6.80       1.67
C       9.21       8.27       5.85
C       9.21       2.36       1.67
O       9.21       5.32       3.76
O      10.79       3.09       5.52
O      11.93       5.06       5.52
O       7.63       6.23       1.07
O       6.49       6.89       2.93
O       6.49       5.06       5.52
O       7.63       3.09       5.52
O      10.79       6.23       1.07
O      11.93       6.89       2.93
O      10.35       7.80       5.52
O       8.07       7.80       5.52
O       9.21       3.49       1.07
O       9.21       2.17       2.93
