24

Cu       7.11       2.03       6.22
Cu       7.11       4.37       4.88
Cu       4.26       2.79       4.84
H       6.61       2.15       3.73
H       1.74       4.15       7.20
C       7.16       1.87       9.24
C       9.07       1.38       8.33
C       3.58       0.02       5.96
C       5.49      -0.52       6.84
C       3.58       5.14       3.00
C       5.49       6.17       2.97
C       7.16       7.06       6.25
C       9.07       6.53       5.37
C       2.66       3.84       6.66
N       7.80       1.76       8.04
N       4.42       1.03       5.74
N       5.63       0.70       6.30
N       4.42       4.44       3.76
N       5.63       5.10       3.75
N       7.80       6.08       5.56
O       6.23       2.59       4.51
O       8.37       3.33       5.78
O       2.42       3.20       5.56
O       3.79       4.11       7.12
