23

Zn      13.12       2.76      18.35
H      13.76      -0.12      16.17
O      13.11       0.64      18.75
O      12.87      -1.95      16.09
H      12.74      -2.72      16.66
C      15.94       3.29      19.53
C      14.07       3.59      21.17
C      11.87       3.56      21.05
C      10.19       3.31      19.19
C      10.32       2.87      17.03
C      12.19       2.46      15.41
C      14.39       2.50      15.54
C      12.52      -0.38      17.94
C      16.06       2.88      17.37
C      13.49      -0.92      16.87
N      13.01       3.39      20.32
N      11.07       3.08      18.16
N      13.24       2.61      16.28
N      15.19       3.02      18.42
H      13.65       0.24      19.49
H      12.18      -1.21      18.58
H      11.64       0.05      17.45
H      14.42      -1.28      17.35
