15

Cu      27.07      28.92      14.24
Cu      29.71      27.67      13.00
Cu      28.39      30.27      11.70
C      30.68      29.94       9.91
C      27.44      26.68      16.08
C      29.31      25.83      15.26
C      26.12      32.09      12.07
C      25.22      31.16      13.87
C      31.58      28.12      10.78
N      27.80      27.42      15.01
N      26.30      30.44      13.52
N      26.86      31.02      12.41
N      29.93      29.57      10.96
N      30.49      28.43      11.51
N      28.97      26.89      14.50
