11

O      12.26       4.76      15.20
Zn      13.55       4.94      13.69
C      16.04       3.93      15.07
N      15.40       5.01      14.57
O      13.54       6.74      12.92
N      13.57       3.61      12.16
C      12.41       3.19      11.61
C      15.90       6.23      14.88
C      14.72       3.17      11.61
C      12.53       6.93      12.11
C      12.36       3.59      15.73
