14

Zn       5.56      17.78       0.91
O       4.56      16.14       1.14
O       5.78      20.13      -0.61
Zn       4.06      18.96      -1.11
O       4.11      19.06       1.62
O       6.11      17.25      -1.07
C       6.76      20.03       0.19
C       3.56      16.15       0.33
C       3.16      19.79       1.22
C       5.81      17.43      -2.28
O       2.82      19.96      -0.00
O       6.99      19.07       1.02
O       3.21      17.09      -0.44
O       4.87      18.19      -2.71
