23

Zn      12.91      14.13      10.10
Zn      13.00      12.35       7.47
Zn      11.35      15.08       7.41
Zn      14.57      15.19       7.64
C      12.97      11.20      10.13
C      10.57      12.71       5.85
C      10.29      15.45      10.10
C      12.97      17.19       6.19
C      15.34      15.71      10.41
C      15.58      12.89       6.19
O      12.94      14.20       8.13
O      13.31      12.29      10.69
O      11.64      12.04       6.10
O      10.29      15.86       8.89
O      12.72      11.01       8.89
O      11.06      14.57      10.61
O      10.26      13.85       6.34
O      11.85      16.57       6.20
O      15.68      15.63       9.18
O      14.01      16.92       6.86
O      14.25      15.29      10.91
O      14.84      12.07       6.81
O      15.58      14.17       6.29
