20

Zn       8.21       9.13      15.15
Zn      10.95       8.86      15.02
N      13.03       8.70      14.96
N       6.14       9.21      15.25
O       8.80      11.01      14.71
O      10.97      10.88      15.37
O      10.73       8.63      17.08
O       8.58       9.34      17.14
O      10.43       6.93      14.78
O       8.26       7.08      15.43
O       8.31       8.72      13.12
O      10.52       9.21      13.06
C       9.92      11.51      15.02
C       9.66       8.96      17.69
C       9.30       6.44      15.10
C       9.40       8.94      12.51
C      13.66       9.67      15.67
C      13.77       7.75      14.41
C       5.37       9.79      16.18
C       5.54       8.38      14.37
