23

Zn      -1.47       9.37      13.84
Zn       0.34       7.85      15.89
Zn       0.12      11.06      15.97
Zn       1.81       9.54      13.64
O       0.22       9.47      14.81
O      -2.50       7.75      14.20
O       0.18       8.26      17.84
O      -1.54      12.08      15.74
O      -1.11       6.59      15.57
O      -2.60      10.93      14.09
O       0.21      10.53      17.87
O       1.64      12.22      15.59
O       1.17       9.54      11.76
O       2.85      11.17      13.98
O      -1.09       9.37      11.88
O       2.04       6.96      15.69
O       2.90       7.91      13.82
C      -2.18       6.73      14.89
C       0.21       9.40      18.45
C      -2.47      11.93      14.88
C       2.62      12.14      14.78
C       0.02       9.45      11.22
C       2.88       7.01      14.72
