16

Zn       4.87      11.81       6.90
N       4.86      11.81       9.10
C       4.21      12.76       9.79
C       5.52      10.87       9.79
C       7.81      10.87       6.72
C       6.41       9.15       6.61
C       1.93      12.76       6.71
C       3.91       8.89       6.61
N       3.26      13.10       6.66
C       3.32      14.47       6.61
C       2.19      10.27       6.71
C       5.82      14.74       6.61
N       6.17      13.41       6.66
N       6.47      10.53       6.66
C       7.54      13.36       6.71
N       3.56      10.22       6.66
