13

O       4.82      17.86      17.08
N       4.03      14.92      16.96
C       2.62      17.62      19.34
Ni       3.17      16.69      16.58
O       1.60      16.02      15.41
O       3.52      16.45      14.40
C       4.30      18.89      16.51
N       2.14      16.93      18.29
C       5.35      14.92      17.24
C       2.29      16.16      14.34
O       3.11      18.85      16.06
C       0.89      16.42      18.38
C       3.40      13.74      16.78
