15

N      14.59       0.94      20.14
N      14.48       2.03      20.97
Cu      15.46       3.55      20.62
Cu      15.78       0.98      18.73
Cu      17.26       3.69      18.04
N      16.30       5.15      20.21
N      16.93       5.24      18.99
N      17.63       2.18      17.05
N      16.98       1.00      17.34
C      13.54       1.77      21.89
C      13.71       0.01      20.56
C      17.16       6.54      18.73
C      16.17       6.40      20.70
C      17.46       0.05      16.50
C      18.49       1.95      16.05
