20

Zn       7.17       5.60      23.32
Zn       4.35       5.60      23.21
C       5.84       8.22      23.32
C       5.63       5.60      25.88
C       5.87       3.01      23.26
C       5.69       5.65      20.67
C      11.45       6.29      24.10
C      10.02       4.81      22.45
C      10.07       6.31      24.11
C      11.43       4.80      22.44
N      12.18       5.54      23.25
N       9.31       5.57      23.29
O       6.95       7.61      23.29
O       4.68       7.68      23.35
O       4.52       5.53      25.26
O       6.79       5.68      25.37
O       4.73       3.56      23.13
O       6.98       3.60      23.42
O       6.79       5.55      21.30
O       4.53       5.75      21.20
