18

Al       6.01       5.73       8.97
Al       9.34       5.77       8.97
O       7.69       4.95       8.81
H       4.38       7.49       8.75
H       7.71       4.04       8.48
C       4.29       3.92      10.51
C       4.37       4.48       6.93
C       7.71       7.64       7.44
C       7.62       7.04      10.99
O       9.94       4.62       7.56
O       5.40       4.21       9.96
O       6.50       6.56      10.62
O       5.52       4.89       7.30
O       6.60       7.30       7.96
O       9.83       4.48      10.31
O       4.35       6.57       9.07
O       8.86       7.13       7.66
O       8.72       6.93      10.36
