20

Zn       6.41       8.32       1.24
Zn       6.37       5.55       1.24
N       6.41       3.49       1.24
N       6.39      10.38       1.21
O       6.40       8.01      -0.81
O       6.34       5.74      -0.81
O       4.32       5.75       1.23
O       4.38       8.03       1.25
O       6.40       5.85       3.27
O       6.44       8.13       3.31
O       8.46       8.14       1.26
O       8.41       5.86       1.24
C       6.37       6.87      -1.39
C       3.77       6.91       1.24
C       6.42       6.98       3.87
C       9.02       6.99       1.25
C       5.57      11.05       0.39
C       7.23      11.03       2.03
C       7.23       2.82       2.05
C       5.57       2.84       0.41
