12

Zn      12.08       8.71      16.84
C      10.65      10.54      18.82
C      11.10      11.56      16.95
C      12.58       9.59      14.28
N      11.06       7.05      17.29
N      11.18      10.35      17.61
N      13.90       8.58      17.70
C      14.23       7.68      18.62
C      15.02       9.37      17.48
O      11.96       8.61      14.89
C      10.46       6.63      18.42
C      10.66       6.16      16.31
