18

Zn       5.52       8.91       8.06
Zn       5.54       6.09       8.13
C       2.93       7.49       8.02
C       8.13       7.51       8.04
C       5.55       7.52      10.70
C       5.56       7.48       5.47
N       5.54       4.04       8.12
N       5.52      10.96       8.07
O       5.53       8.64      10.09
O       5.52       8.64       6.01
O       5.54       6.36      10.17
O       5.57       6.35       6.08
O       3.49       8.63       7.99
O       7.56       8.65       7.98
O       3.51       6.36       8.12
O       7.57       6.38       8.16
C       5.53      12.12       8.08
C       5.54       2.88       8.10
