36

Zn       1.36       1.85       8.23
Zn       4.27       6.14       8.50
Zn       1.53       3.98       5.39
Zn       4.17       3.11      10.17
C       0.09       0.33       5.89
C       0.23       1.85      11.11
C       2.58       8.15       7.49
C      -1.34       3.88       6.05
C       4.26       5.13      12.47
C       3.40       6.80      11.34
C      -1.38       3.13       8.13
C       1.72       3.25      11.98
C       6.87       4.96       7.58
C       2.97       6.10       3.98
C       4.86       0.21       9.59
C       3.62      -0.16       7.79
C       6.57       2.87       8.29
C       0.92       1.41       4.21
S       3.98       9.12       7.83
N       1.02       1.14       6.37
N       2.76       6.81       7.44
N      -0.08       3.82       6.52
N       4.40       4.86      11.17
N       3.86       5.92      10.45
N      -0.09       3.35       7.78
N       2.10       2.98      10.72
N       1.59       6.21       7.14
N       5.67       4.86       8.17
N       2.99       4.98       4.70
N       4.00       1.22       9.45
N       4.29       4.73       5.11
N       3.24       1.01       8.35
N       5.48       3.58       8.62
N       1.56       1.86       5.30
N       1.18       2.11      10.19
O       4.98       8.18       8.36
