20

Zn       3.21       4.92      13.88
Zn       6.00       5.16      13.83
H       0.83       5.78      14.16
H      -1.12       5.61      13.14
C       4.35       7.53      14.51
C       4.71       4.61      16.47
C       4.94       2.52      13.53
C       4.48       5.62      11.32
C       0.33       3.92      14.29
C      -1.08       4.29      14.57
N       1.20       4.83      14.05
N      -1.69       5.18      13.87
O       3.25       6.88      14.53
O       5.50       7.05      14.24
O       3.59       4.39      15.89
O       5.83       4.81      15.91
O       3.80       3.08      13.38
O       6.05       3.13      13.63
O       3.36       5.63      11.93
O       5.63       5.40      11.81
