10

Al       3.97      14.46      16.70
O       5.03      13.42      17.92
O       5.03      13.93      15.19
O       5.03      16.04      17.00
O       2.90      12.87      16.78
O       2.90      15.32      18.04
O       2.90      15.19      15.29
C       5.99      14.58      14.65
C       5.99      16.18      17.82
C       5.99      12.63      17.63
