17

Cd       8.17       9.51      13.26
C       8.88      10.25      16.35
O       9.80       8.49      11.97
C       7.46       8.77      10.18
O       6.53      10.52      14.55
C       8.47      12.78      13.20
C       7.86       6.23      13.33
S      11.17       7.90      12.18
S       5.16      11.12      14.34
C      10.01       8.33      15.73
N       9.06      11.65      12.78
C       6.32      10.68      10.80
N       7.27       7.37      13.75
N       9.16       9.33      15.41
C      10.09      11.73      11.91
N       7.17       9.69      11.12
C       6.25       7.29      14.62
