15

C      34.96      23.96      25.20
N      29.74      21.55      22.38
Cu      31.79      21.79      24.25
Cu      30.52      23.05      21.64
Cu      33.12      24.36      22.95
C      34.02      22.16      26.11
N      33.30      22.52      25.03
N      30.30      21.01      23.51
N      33.88      23.63      24.47
N      31.27      24.55      20.87
C      30.93      25.27      19.79
N      32.38      25.11      21.44
C      32.73      26.19      20.71
C      29.57      19.93      23.87
C      28.68      20.80      22.03
