10

Al       0.04      36.26      12.56
O      -1.02      35.30      11.28
O      -1.02      35.63      14.04
O      -1.02      37.86      12.37
O       1.10      34.68      12.39
O       1.10      37.20      11.28
O       1.10      36.91      14.02
C      -1.97      36.26      14.62
C      -1.97      38.05      11.54
C      -1.97      34.49      11.53
