23

Zn       7.58       8.95      15.51
Zn       7.33      10.68      18.20
Zn       9.06      11.84      15.75
Zn       5.89      11.68      15.50
O       7.47      10.78      16.23
O       7.46       7.55      16.90
O       8.66      11.76      19.14
O      10.40      10.62      15.01
C       7.58       7.75      18.16
O       9.24       8.74      14.45
C      10.25       9.53      14.39
O       7.81       8.85      18.74
C       5.03       9.25      14.06
C       9.60      12.44      18.61
O       6.07       8.56      14.31
O       5.47      11.11      18.64
C       4.74      12.01      18.12
O       9.73      12.71      17.37
O       8.67      13.33      14.53
C       7.54      13.66      14.05
O       4.79      10.43      14.46
O       6.43      13.05      14.19
O       4.80      12.46      16.93
