23

Zn      17.71       5.12      32.02
Zn      14.51       4.91      31.79
Zn      16.28       2.22      31.87
Zn      15.96       4.03      34.49
C      16.08       7.09      30.54
C      13.77       2.49      30.29
C      18.86       2.80      30.57
C      16.11       1.08      34.57
C      18.46       5.59      34.83
C      13.37       5.42      34.47
O      16.13       4.07      32.53
O      17.24       6.69      30.94
O      13.52       3.70      30.61
O      17.93       1.96      30.83
O      14.96       6.53      30.77
O      18.93       4.02      30.93
O      14.76       1.80      30.68
O      16.25       0.89      33.31
O      17.46       4.98      35.32
O      15.98       2.20      35.17
O      18.72       5.75      33.59
O      13.28       5.50      33.20
O      14.32       4.88      35.14
