18

Al       6.00       6.86       8.57
Al       2.68       6.80       8.55
O       3.18       7.92      10.01
O       5.49       8.07       7.16
H       4.38       5.10       8.16
H       7.71       8.47       8.03
O       6.56       5.59       7.19
O       5.44       8.08       9.90
C       4.34       8.42       6.72
C       4.31       8.33      10.44
O       8.84       5.59       7.06
C       7.65       5.21      10.33
O       6.52       5.65       9.95
O       3.22       8.10       7.23
O       4.35       6.01       8.50
O       8.78       5.49       9.80
C       7.67       5.29       6.66
O       7.69       7.63       8.51
