10

Al       0.31      21.13       4.06
C       2.31      19.41       5.17
C       2.31      21.04       2.02
C       2.32      22.95       5.00
O       1.36      22.72       4.20
O       1.36      20.22       5.38
O       1.37      20.45       2.64
O      -0.75      22.15       5.27
O      -0.74      21.66       2.56
O      -0.75      19.56       4.36
