23

C       5.04      11.29       5.67
C       4.67      11.56       0.57
Zn       3.70      15.53       3.25
Zn       3.70      12.35       3.25
Zn       6.01      13.94       1.68
Zn       6.03      13.94       4.82
C       8.52      13.94       3.17
C       1.22      13.94       3.47
O       4.21      16.74       4.71
O       5.77      15.56       5.88
O       3.80      16.43       1.50
O       5.65      15.50       0.55
O       1.80      12.80       3.47
O       4.21      11.14       4.71
O       5.77      12.32       5.88
O       3.80      11.45       1.50
O       5.65      12.38       0.55
O       1.80      15.08       3.47
C       5.04      16.59       5.67
O       4.85      13.94       3.25
O       7.93      13.94       4.30
O       7.94      13.94       2.03
C       4.67      16.32       0.57
