15

Cu       4.27      17.91      20.06
Cu       3.90      20.62      18.60
Cu       2.28      18.32      17.42
C       2.93      22.00      16.24
C       2.77      15.43      20.10
C       1.72      20.38      15.32
N       4.96      20.52      20.10
N       5.31      19.32      20.66
N       3.10      16.59      19.51
N       2.29      16.75      18.41
N       2.24      19.91      16.48
N       2.98      20.92      17.05
C       6.23      19.56      21.62
C       5.65      21.49      20.71
C       1.47      15.69      18.33
