13

C       1.52      27.17      10.59
N       0.84      26.06      10.27
N       3.35      23.85       9.95
N       0.84      23.21      12.11
N       0.48      23.16       8.97
C       4.49      24.22      10.58
C       0.00      21.91       9.11
Zn       1.40      24.17      10.47
C      -0.36      26.48       9.72
C       3.79      23.20       8.83
C      -0.48      23.03      12.50
C       0.30      23.48       7.64
C       1.59      22.64      13.07
