23

Zn      36.20      21.69      11.75
Zn      33.26      20.51      11.75
Zn      35.75      18.55      11.75
Zn      35.07      20.25      14.41
O      36.85      22.80      13.21
O      37.77      21.09      10.72
O      35.19      22.69      10.40
O      36.00      21.84      15.10
O      31.97      20.52      13.21
O      32.99      22.18      10.72
O      32.90      19.13      10.40
O      33.22      20.27      15.10
O      36.38      17.44      13.21
O      34.44      17.49      10.72
O      37.12      18.93      10.40
O      35.98      18.65      15.11
C      36.70      22.72      14.48
C      37.86      19.94      10.15
O      35.07      20.25      12.45
C      32.12      20.43      14.48
C      33.94      22.83      10.15
C      36.39      17.61      14.48
C      33.41      17.98      10.15
