118

Sm      11.03       7.45       4.30
Sm      11.03      14.91       8.61
Sm      18.39      14.91       8.61
Sm      18.39       7.45       4.30
Cu      14.71      11.18       6.46
Cu      14.71       7.45       0.00
Cu      14.71       3.73       6.46
Cu       7.36       7.45       0.00
Cu       7.36      11.18       6.46
Cu       7.36       3.73       6.46
C      12.66       9.19       6.66
C      11.81       8.34       7.59
C      12.66       8.63       1.62
C      11.81       9.86       1.89
C      12.66       4.55       4.63
C      11.81       4.16       3.43
C      12.66      13.18       6.25
C      11.81      14.02       5.32
C      12.66       6.28      -1.62
C      11.81       5.05      -1.89
C      12.66       2.91       8.28
C      11.81       3.29       9.48
C       9.40       8.63      -1.62
C      10.26       9.86      -1.89
C       9.40      12.00       8.28
C      10.26      11.62       9.48
C       9.40       1.73       6.25
C      10.26       0.89       5.32
C       9.40       6.28       1.62
C      10.26       5.05       1.89
C       9.40      10.36       4.63
C      10.26      10.74       3.43
C       9.40       5.72       6.66
C      10.26       6.56       7.59
C      16.76      13.18       6.25
C      17.61      14.02       5.32
C      16.76       6.28      -1.62
C      17.61       5.05      -1.89
C      16.76       2.91       8.28
C      17.61       3.29       9.48
C      16.76       9.19       6.66
C      17.61       8.34       7.59
C      16.76       8.63       1.62
C      17.61       9.86       1.89
C      16.76       4.55       4.63
C      17.61       4.16       3.43
C       5.31       6.28       1.62
C       4.45       5.05       1.89
C       5.31      10.36       4.63
C       4.45      10.74       3.43
C       5.31       5.72       6.66
C       4.45       6.56       7.59
C       5.31       8.63      -1.62
C       4.45       9.86      -1.89
C       5.31      12.00       8.28
C       4.45      11.62       9.48
C       5.31       1.73       6.25
C       4.45       0.89       5.32
O      13.36      10.05       7.29
O      12.62       8.97       5.42
O      13.36       8.74       0.57
O      12.62       7.66       2.43
O      13.36       3.57       5.06
O      12.62       5.73       5.06
O      13.36      12.31       5.63
O      12.62      13.39       7.49
O      13.36       6.17      -0.57
O      12.62       7.25      -2.43
O      13.36       3.88       7.85
O      12.62       1.73       7.85
O       8.70       8.74      -0.57
O       9.45       7.66      -2.43
O       8.70      11.03       7.85
O       9.45      13.18       7.85
O       8.70       2.59       5.63
O       9.45       1.52       7.49
O       8.70       6.17       0.57
O       9.45       7.25       2.43
O       8.70      11.33       5.06
O       9.45       9.18       5.06
O       8.70       4.86       7.29
O       9.45       5.93       5.42
O      16.06      12.31       5.63
O      16.80      13.39       7.49
O      16.06       6.17      -0.57
O      16.80       7.25      -2.43
O      16.06       3.88       7.85
O      16.80       1.72       7.85
O      16.06      10.05       7.29
O      16.80       8.97       5.42
O      16.06       8.74       0.57
O      16.80       7.66       2.43
O      16.06       3.57       5.06
O      16.80       5.73       5.06
O       6.01       6.17       0.57
O       5.26       7.25       2.43
O       6.01      11.33       5.06
O       5.26       9.18       5.06
O       6.01       4.86       7.29
O       5.26       5.93       5.42
O       6.01       8.74      -0.57
O       5.26       7.66      -2.43
O       6.01      11.03       7.85
O       5.26      13.18       7.85
O       6.01       2.59       5.63
O       5.26       1.52       7.49
O      11.03       7.45       6.81
O      11.03       9.62       3.05
O      11.03       5.29       3.05
O      11.03      14.91       6.10
O      11.03       5.29      -3.05
O      11.03       2.17       9.86
O      18.39      14.91       6.10
O      18.39       5.29      -3.05
O      18.39       2.17       9.86
O      18.39       7.45       6.81
O      18.39       9.62       3.05
O      18.39       5.29       3.05
