14

Zn      -5.08      -2.59      10.21
Zn      -5.31      -4.04       7.88
C      -7.65      -2.80       9.66
C      -2.69      -3.44       9.53
O      -6.96      -2.28      10.61
O      -3.34      -3.84       8.52
O      -7.18      -3.37       8.62
O      -3.17      -2.77      10.51
O      -4.99      -1.31       8.55
O      -5.52      -5.84       8.57
O      -5.24      -2.55       6.64
O      -5.34      -4.69      10.53
C      -5.11      -1.45       7.29
C      -5.45      -5.76       9.85
