23

Zn      23.17      18.72      16.99
Zn      21.60      19.54      14.28
Zn      19.95      18.62      16.86
Zn      21.48      21.42      16.88
O      21.56      19.56      16.25
O      24.49      18.38      15.55
O      19.92      18.87      13.55
O      20.51      17.36      18.26
C      24.20      18.21      14.31
O      22.71      16.96      17.80
C      21.57      16.66      18.29
O      23.07      18.33      13.76
C      23.93      21.12      18.44
O      19.14      17.71      15.34
O      24.01      19.85      18.36
O      21.96      21.38      13.68
O      18.64      19.86      17.65
O      23.18      21.87      17.74
O      20.06      21.55      18.24
O      21.14      22.65      15.39
C      21.51      22.45      14.17
C      19.12      18.05      14.11
C      18.93      20.96      18.23
