20

Zn      17.96       8.07      13.17
O      17.63       8.32      15.20
O      18.75       6.20      13.49
O      19.81       8.57      15.75
O      18.74       7.96      11.26
Zn      20.58       8.63      13.85
O      20.87       8.52      11.79
C      18.67      10.86      13.09
C      19.96       5.82      13.59
C      18.57       8.48      16.04
C      19.95       8.21      10.97
C      22.73      10.26      15.16
C      15.81       6.45      11.85
C      23.48       8.58      13.73
C      15.05       8.10      13.30
N      22.48       9.23      14.30
N      16.06       7.45      12.72
O      17.67      10.10      12.90
O      20.95       6.59      13.84
O      19.80      10.51      13.58
