27

Zn       1.14      10.41       9.80
Zn      -1.14      12.69       9.80
Zn      -1.14      10.41       7.59
Zn       1.14      12.69       7.59
N       2.91      11.14       9.24
N      -2.91      11.97       9.24
N      -2.91      11.14       8.15
N       2.91      11.97       8.15
N      -0.42       8.65       8.15
N       0.42      14.46       8.15
N       0.42       8.65       9.24
N      -0.42      14.46       9.24
O       0.00      11.55       8.70
O       0.81      10.74      11.74
O      -0.81      12.36      11.74
O      -0.81      10.74       5.65
O       0.81      12.36       5.65
C       4.18      10.88       9.58
C      -4.18      12.23       9.58
C      -4.18      10.88       7.81
C       4.18      12.23       7.81
C      -0.68       7.37       7.81
C       0.68      15.73       7.81
C       0.68       7.37       9.58
C      -0.68      15.73       9.58
C      -0.00      11.55      12.31
C       0.00      11.55       5.08
