15

C       2.37       4.27      17.99
C       4.13       2.95      17.72
Cu       5.71       3.83      20.04
Cu       5.90       6.21      22.12
Cu       3.34       5.87      20.25
C       4.31       8.48      23.07
C       2.41       8.00      22.03
N       7.12       4.84      22.23
N       6.98       3.77      21.37
N       4.38       3.77      18.76
N       3.29       4.60      18.92
N       3.37       7.18      21.55
N       4.55       7.47      22.20
C       7.75       2.76      21.83
C       7.99       4.48      23.20
