10

Al      -0.00       3.97       6.93
O       1.06       4.60       8.38
O       1.06       2.42       6.73
O       1.05       4.97       5.63
O      -1.05       3.34       8.42
O      -1.06       5.53       6.76
O      -1.04       3.01       5.63
C       1.97       3.94       8.98
C       1.95       2.24       5.83
C       2.00       5.76       5.91
