25

C      17.61       6.89      16.92
O      19.49      11.25      15.91
C      24.20      11.81      16.92
Cu      18.52       9.57      15.91
Cu      21.42      11.25      15.91
Cu      18.52      12.93      15.91
C      17.61      15.61      14.90
C      24.20      10.70      14.90
C      16.65       7.44      14.90
N      20.26       8.58      15.93
N      20.49       7.27      15.94
N      21.42      13.26      15.93
N      22.43      14.11      15.94
N      16.78      11.92      15.93
N      15.54      12.37      15.94
N      21.42       9.24      15.90
N      22.43       8.39      15.89
N      16.78      10.58      15.90
N      15.54      10.13      15.89
N      20.26      13.93      15.90
N      20.49      15.23      15.89
N      17.48      14.74      15.91
N      17.48       7.77      15.91
N      23.51      11.25      15.91
C      16.65      15.06      16.92
