36

Zn       7.52      12.20       8.64
Zn      10.32      16.39       8.79
Zn      10.21      13.31      10.47
Zn       7.52      15.28       6.99
C       6.54      12.78      11.49
C       9.54       9.95       8.03
C       6.68      13.41       4.75
C       8.44      18.82       8.47
C      13.28      13.61       9.86
C       9.19      15.45      12.45
C       4.77      15.02       8.12
C       9.97      17.37      11.65
C       7.32      11.52       5.72
C       4.47      12.83       8.38
C       6.94      18.21       6.99
C       8.32      12.37      12.76
C      12.90      14.95       8.12
C      11.25      11.35       8.33
C       9.32      16.44       4.98
C      10.73      17.75       6.08
N       7.61      12.67      10.69
N       9.66      15.22      11.22
N       5.98      14.45       8.25
N      10.15      16.41      10.73
N       5.78      13.10       8.41
N       7.37      17.12       7.63
N       8.71      12.42      11.47
N       7.77      12.55       6.47
N      11.76      14.82       8.81
N      10.16      11.90       8.90
N       9.53      15.89       6.20
N      10.41      16.71       6.86
N       9.11      11.03       8.71
N       7.37      13.70       5.86
N      12.00      13.99       9.88
N       8.33      17.50       8.57
