10

Al       3.97      13.94       0.00
O       5.03      12.35      -0.12
O       5.03      14.84      -1.32
O       5.03      14.63       1.44
O       2.92      12.94      -1.25
O       2.92      13.35       1.49
O       2.92      15.52      -0.24
C       5.97      15.67      -1.10
C       5.97      14.02       2.05
C       5.97      12.12      -0.95
