48

Tb       2.37       4.71       7.13
Tb       2.37       6.00       3.58
Tb      -0.32       3.58       4.71
Tb      -0.32       7.13       6.00
H       2.61       3.39       4.68
H       2.61       7.33       6.03
H      -0.56       6.03       3.38
H      -0.56       4.68       7.33
C       1.44       3.21       1.93
C       1.44       7.50       8.78
C       0.61       1.93       7.50
C       0.61       8.79       3.21
N       4.03       4.14       9.02
N       4.03       6.57       1.69
N      -1.98       1.69       4.14
N      -1.98       9.02       6.57
O       4.29       6.07       7.19
O       4.29       4.64       3.52
O       5.97       3.52       6.07
O      -2.24       7.20       4.64
O       6.44       6.45       7.79
O      -1.78       4.27       2.92
O       3.83       2.92       6.44
O       3.83       7.80       4.27
O       1.74       4.45       1.91
O       1.73       6.26       8.80
C       5.32       5.86       7.91
C       5.32       4.85       2.80
C       4.94       2.80       5.86
C       4.94       7.92       4.85
O       0.31       1.91       6.26
O       0.31       8.80       4.45
O       0.75       2.64       2.83
O       0.74       8.08       7.88
C       5.21       4.79       8.97
C       5.21       5.92       1.74
C       5.05       1.74       4.79
C      -3.16       8.97       5.92
O       1.31       2.83       8.08
O       1.31       7.88       2.64
O       1.99       4.10       4.91
O       1.99       6.62       5.80
O       0.06       5.80       4.10
O       0.07       4.91       6.61
C       3.91       3.09       9.83
C       3.91       7.62       0.88
C      -1.86       0.88       3.09
C      -1.86       9.84       7.62
