23

Zn       7.53       9.04      15.54
Zn       7.41      10.86      18.23
Zn       9.01      11.91      15.68
Zn       5.84      11.80      15.61
C       7.46       7.89      18.27
C       9.85      12.43      18.49
C      10.15       9.58      14.26
C       7.40      13.92      14.27
O       7.45      10.87      16.27
O       7.52       7.71      17.00
C       5.05       9.39      14.02
O       8.91      11.80      19.08
O       7.40       9.01      18.88
O       9.20       8.76      14.53
O      10.22      10.81      14.60
O       9.98      12.57      17.24
O       8.56      13.48      14.59
O       4.88      10.58      14.43
O       6.02       8.62      14.34
O       5.76      11.69      18.91
O       6.28      13.41      14.59
O       4.64      12.38      17.04
C       4.78      12.24      18.31
