23

Zn      -1.58       4.33       8.06
Zn       1.61       4.34       8.12
Zn       0.01       7.16       8.12
Zn       0.08       5.26       5.51
O       0.02       5.31       7.47
O       1.54       4.18       4.75
O      -1.12       2.91       9.33
O      -2.79       5.56       9.03
O       1.15       2.80       9.21
O       0.04       8.44       6.62
O       2.78       5.61       9.04
O      -1.56       4.51       4.75
O       1.52       7.48       9.34
O      -2.54       3.53       6.56
O       0.28       7.08       4.81
O       2.69       3.66       6.64
O      -1.66       7.53       9.12
C       2.53       3.67       5.38
C      -2.60       6.74       9.45
C       0.01       2.39       9.60
C       0.14       8.22       5.37
C       2.56       6.76       9.52
C      -2.44       3.78       5.31
