54

Zr       2.35      10.87       5.28
Zr       5.89      12.92       8.17
Zr       4.12      13.94       5.28
Zr       4.12       9.85       8.17
Zr       2.34      12.92       8.17
Zr       5.89      10.87       5.28
H       1.33      13.50       5.59
H       4.12      11.89      10.14
H       6.90      13.50       5.59
H       4.12       8.68       5.59
C      -0.38      11.85       6.76
C       4.09      14.52      10.36
C       8.60      11.84       6.73
C       4.12       9.34       3.03
C       1.90      13.16       3.03
C       1.84       8.02       6.76
C       6.41      10.60      10.36
C       6.34      15.79       6.78
C       1.92      15.81       6.74
C       6.31      13.19       3.03
C       6.40       8.02       6.76
C       1.84      10.57      10.37
O       0.20      11.19       5.82
O       5.24      14.20       9.90
O       8.04      12.50       7.67
O       2.97       9.67       3.50
O       2.76      13.99       3.50
O       2.70       8.19       7.69
O       5.55       9.76       9.90
O       5.48      15.63       5.84
O       1.62      14.98       7.67
O       6.60      12.02       3.49
O       6.67       8.85       5.82
O       1.55      11.72       9.89
O       5.45      14.00       3.52
O       5.54       8.19       7.69
O       2.70       9.75       9.90
O       2.79      15.63       5.82
O       1.62      12.01       3.50
O       6.61      14.96       7.71
O       6.68      11.75       9.88
O       1.55       8.85       5.82
O       5.26       9.67       3.50
O       0.20      12.51       7.69
O       2.96      14.19       9.88
O       8.01      11.18       5.81
O       4.12       9.59       5.91
O       6.11      13.04       5.91
O       4.11      11.89       9.17
O       2.12      13.04       5.91
O       4.12      13.59       7.33
O       2.65      11.04       7.33
O       5.59      11.04       7.32
O       4.11      11.89       4.93
