14

O       2.27       0.35      32.90
O       4.53       0.25      32.77
Zn       2.70       0.29      34.77
Zn       5.42       0.23      34.69
C       4.77       2.76      34.74
C       3.55       0.23      37.28
O       3.45      -1.69      34.76
C       4.57      -2.27      34.70
O       3.62       2.22      34.80
O       5.89       2.11      34.69
O       4.68       0.20      36.69
O       2.42       0.30      36.68
O       5.72      -1.68      34.65
C       3.37       0.29      32.23
