18

Al       5.77       5.67       8.17
Al       2.46       5.70       8.20
H       4.09       6.38       6.60
H       7.40       4.13       9.04
O       6.41       7.45       8.02
O       8.46       5.80       6.37
O       2.95       3.83       7.91
O       5.31       6.05      10.00
C       7.46       8.09       8.45
C       7.36       5.55       5.77
C       4.05       3.25       8.30
C       4.20       5.83      10.58
O       5.15       3.88       8.41
O       3.10       5.56      10.00
O       8.58       7.50       8.61
O       6.24       5.36       6.32
O       4.11       6.28       7.56
O       7.42       5.06       8.76
