20

Zn       8.82       8.27      13.97
Zn       5.87       8.27      13.90
C       7.65       5.71      13.98
C       7.64      10.84      13.96
C       6.99       8.44      16.49
C       7.12       8.07      11.37
C       2.96       7.74      14.96
C      11.74       9.27      13.40
C       2.92       8.75      12.89
C      11.73       7.31      14.61
N       3.65       8.24      13.91
N      11.03       8.29      14.00
O       8.81       6.26      13.92
O       6.54      10.24      13.80
O       8.79      10.29      14.06
O       6.55       6.33      14.04
O       8.10       8.29      15.91
O       5.94       8.06      11.89
O       8.20       8.22      12.01
O       5.85       8.51      15.92
