32

K       4.39      18.06      25.07
C       1.61      16.48      32.25
C       5.51      16.48      17.52
K       0.49      18.06      24.70
K       2.41      17.83      20.67
K       6.31      17.83      29.10
K       2.55      15.53      27.60
K       6.45      15.53      22.17
S       2.49      15.61      23.45
S      -1.41      15.61      26.32
S       1.71      16.61      30.48
S       5.61      16.61      19.30
S       2.74      20.09      23.12
S       6.64      20.09      26.65
O       2.48      16.02      24.87
O      -1.42      16.02      24.90
O       1.38      16.24      22.70
O      -2.52      16.24      27.07
O       3.79      15.82      22.81
O      -0.11      15.82      26.96
O       3.14      16.74      30.13
O       7.04      16.74      19.65
O       1.14      15.36      29.94
O       5.04      15.36      19.83
O       0.92      17.79      30.14
O       4.82      17.79      19.64
O       1.55      19.98      22.27
O       5.45      19.98      27.51
O       2.44      19.77      24.55
O       6.35      19.77      25.23
O       3.87      19.28      22.63
O      -0.03      19.28      27.14
