20

Zn       8.14       6.96       8.91
Zn       8.09       9.85       8.81
C       8.02       8.49      11.43
C       9.15       4.20       9.72
C       7.12      12.63       8.02
C       7.37       4.25       8.21
C       8.45       8.28       6.30
C       8.91      12.55       9.53
C      10.75       8.57       9.12
C       5.50       8.27       8.59
N       8.27       4.91       8.97
N       7.99      11.91       8.77
O       7.77       7.37      10.87
O       8.20       9.42       6.83
O       8.11       9.61      10.84
O       8.57       7.18       6.92
O      10.15       7.47       9.37
O       6.03       9.43       8.69
O      10.18       9.68       8.87
O       6.12       7.17       8.49
