36

Zn       1.35      12.82       6.43
Zn      -1.35      14.70       9.84
Zn       1.35      15.71       8.13
Zn      -1.35      11.82       8.13
C      -0.86      13.59       4.51
C       3.33      14.52       4.70
C       1.32      17.81      10.45
C      -2.63      12.93       5.63
C       3.35      12.21       8.61
C      -4.19      13.61      10.56
C      -0.46       9.13       6.83
C      -0.86      17.02       6.54
C      -0.46      17.14      11.57
C       3.33      16.41       5.82
C       0.14      11.01      10.64
C      -2.63      16.36       7.66
C       1.32       9.79       5.71
C      -4.19      11.72       9.44
C       3.35      14.10       9.73
C       0.14      12.90      11.76
N      -0.49      13.41       5.80
N       2.55      14.35       5.78
N       0.77      16.78       9.78
N      -1.60      13.00       6.50
N       2.25      12.90       8.25
N      -2.98      13.48       9.98
N      -0.34      10.45       7.00
N      -0.49      15.98       7.32
N      -0.34      16.36      10.49
N       2.55      15.54       6.49
N      -0.16      12.00       9.77
N      -1.60      15.57       8.02
N       0.77      10.87       6.29
N      -2.98      12.29       9.27
N       2.25      14.08       8.95
N      -0.16      13.18      10.47
