23

Zn      -0.18       6.91       6.78
Zn      -0.47       6.72       9.84
Zn      -2.09       9.02       8.26
Zn       1.11       9.29       8.48
O       1.08       7.05      11.03
O      -3.02       8.51       6.58
O      -3.39       8.50       9.65
O       2.21       8.78      10.05
O       2.40       9.03       6.99
O      -0.40       8.02       8.37
O      -1.82      10.93       8.19
O      -0.33       4.84       9.27
O       0.49       5.12       7.16
O       0.42      11.10       8.58
O      -2.19       6.89      10.74
O      -1.91       6.63       5.89
O       1.11       7.77       5.59
C       2.18       8.37       5.93
C       2.05       7.87      10.91
C      -0.73      11.59       8.31
C      -3.20       7.65      10.58
C       0.17       4.41       8.17
C      -2.82       7.52       5.82
