23

Zn      36.67      20.71       2.68
Zn      38.37      19.87       0.13
Zn      36.73      22.62       0.19
Zn      35.09      19.82       0.04
O      36.71      20.73       0.73
O      39.53      19.27       1.61
O      38.25      19.81       3.41
O      36.44      23.88       1.69
O      36.57      22.49       3.48
O      34.14      18.81       1.46
O      35.08      19.77       3.30
O      38.36      23.12      -0.75
O      39.50      21.15      -0.87
O      35.65      18.52      -1.34
O      37.92      18.42      -1.11
O      33.84      21.11      -0.78
O      35.21      22.91      -1.01
C      39.34      19.43       2.86
C      36.32      23.61       2.93
C      34.33      18.92       2.73
C      39.38      22.40      -1.06
C      36.82      18.13      -1.69
C      34.08      22.32      -1.11
