23

Zn      11.97       8.65       8.49
Zn      12.12       6.49      10.89
Zn      14.59       8.31      10.29
Zn      13.87       5.97       8.30
C      12.45       3.89       9.82
C      13.74      10.90       9.09
C       9.76       8.06      10.27
C      16.62       6.78       8.79
C      13.91       7.39      12.96
C      12.32       6.99       6.04
O      13.11       7.37       9.44
O      13.11       6.46      12.60
O      12.94       6.01       6.56
O      14.32       8.36      12.25
O      11.90       8.04       6.61
O      10.07       8.48       9.10
O      15.79       6.17       8.04
O      11.60       4.65      10.41
O      14.55      10.18       9.76
O      13.52       4.27       9.24
O      12.65      10.49       8.55
O      10.58       7.68      11.17
O      16.33       7.58       9.74
