14

O      10.50       1.38       1.40
C       9.36      -1.75       1.84
C       9.36       1.75      -1.84
Cu       8.13      -0.00      -0.00
C       9.36      -1.75      -1.84
Cu      10.59       0.00       0.00
O      10.50       1.38      -1.40
O      10.50      -1.38       1.40
O       8.22       1.38       1.40
C       9.36       1.75       1.84
O       8.22      -1.38       1.40
O       8.22       1.38      -1.40
O      10.50      -1.38      -1.40
O       8.22      -1.38      -1.40
