18

Al       5.90       9.72       8.33
Al       2.57       9.74       8.46
O       4.23       8.92       8.48
O       7.56      10.55       8.30
H       4.26       8.11       9.02
H       7.59      11.35       7.77
C       4.21      11.18       6.44
C       7.54       8.28      10.34
C       4.28      11.50      10.06
C       7.60       7.96       6.73
O       3.11      11.12       9.72
O       6.44       8.35       7.07
O       5.36      10.81       6.84
O       2.03       8.65       9.95
O       5.38      11.07       9.59
O       2.05       8.39       7.20
O       6.44       8.60       9.78
O       3.11      10.86       7.01
