23

Zn       3.90       7.76       8.57
Zn       5.15       5.04       9.27
Zn       3.16       6.22      11.39
Zn       1.91       5.34       8.72
O       3.53       6.09       9.49
O       5.73       7.95       7.93
O       6.08       5.06      11.04
O       3.76       8.04      11.83
O       6.49       5.83       8.09
O       3.30       9.11       9.87
O       4.20       4.76      12.27
O       1.32       5.79      11.90
C       6.62       7.05       7.72
O       0.98       6.84       7.78
O       2.86       7.71       6.86
C       3.53       9.10      11.13
C       1.60       7.51       6.90
O       4.46       3.29       8.71
O       0.57       4.78      10.03
O       2.60       3.92       7.55
C       5.45       4.67      12.08
C       3.53       3.08       7.85
C       0.44       5.12      11.26
