36

Zn       5.79       7.61       0.37
Zn       7.79      10.04      -0.33
Zn      10.34       8.06      -0.65
Zn       8.29       5.47      -0.14
C       6.83       7.53       3.08
C      10.97       4.26       0.92
N       6.06       8.03      -1.54
N      10.45       9.96      -1.56
N       8.63       6.09      -2.05
N       5.31       5.63       0.12
N       9.37      10.79      -1.36
N       7.04       8.94      -1.80
N       5.27       9.48       1.05
N       7.97       6.23       1.73
N      11.19       6.24       0.01
N       8.91       9.64       1.27
N       9.42       7.20      -2.18
N       6.34       4.83      -0.32
N       9.96       8.79       1.16
N       6.05      10.52       0.60
N       7.17       7.33       1.79
N      10.33       5.18       0.18
C       5.28       7.92      -2.64
C      11.29      10.58      -2.41
C       8.57       5.47      -3.24
C       4.17       5.18      -0.43
C       9.56      11.92      -2.07
C       6.88       9.40      -3.05
C       4.59       9.91       2.13
C       8.10       5.73       2.97
C      12.34       5.96       0.65
C       9.10      10.42       2.35
C       9.85       7.27      -3.45
C       5.81       3.90      -1.14
C      10.82       9.04       2.17
C       5.83      11.58       1.40
