36

C       4.26      -3.37      10.68
Zn       2.70      -3.36       8.10
C       9.47      -5.35       4.43
Zn       7.91      -5.36       7.01
C       2.14      -6.16       8.88
C      -3.08      -2.57       6.23
C       3.51      -5.91       6.83
H       1.53      -5.37       7.07
C      -1.70      -2.81       8.29
H      -3.69      -3.36       8.05
C       4.78      -5.09       7.06
C      -0.43      -3.64       8.05
C       2.96      -1.68       5.75
C       8.17      -7.05       9.36
C       2.79      -0.32       5.10
C       8.00      -8.40      10.01
N       3.10      -3.00      10.11
N       8.31      -5.72       5.01
N       2.39      -5.39       7.63
N      -2.82      -3.33       7.49
O       4.73      -4.01       7.74
O      -0.48      -4.72       7.38
O       5.84      -5.58       6.56
O       0.62      -3.14       8.55
O       2.64      -1.73       7.01
O       7.86      -7.00       8.10
O       3.39      -2.64       5.08
H       1.81       0.10       5.35
O       8.61      -6.08      10.04
H       7.02      -8.83       9.77
H       2.91      -0.39       4.02
H       8.12      -8.33      11.10
H       3.54       0.38       5.49
H       8.75      -9.10       9.62
C       2.16      -2.40      10.87
C       7.38      -6.33       4.24
