20

Zn       9.70       8.86      16.62
Zn       6.93       8.90      16.61
N       4.87       8.89      16.64
N      11.76       8.87      16.58
O       9.43      10.91      16.65
O       7.17      10.94      16.63
O       7.18       8.91      18.67
O       9.45       8.85      18.66
O       7.23       6.86      16.60
O       9.50       6.81      16.59
O       9.41       8.86      14.59
O       7.14       8.89      14.55
C       8.31      11.50      16.64
C       8.31       8.88      19.24
C       8.35       6.25      16.59
C       8.29       8.88      13.99
C       4.22       9.72      17.47
C       4.19       8.08      15.82
C      12.45       9.69      17.39
C      12.40       8.03      15.75
