18

Al       1.09      17.26      15.78
O       1.63      18.23      14.22
Al       4.42      17.28      15.80
O      -1.71      16.32      17.37
O       0.55      15.80      14.63
O       3.88      18.74      16.96
O       0.55      16.30      17.34
O       2.76      16.48      15.95
O      -0.58      18.06      15.64
H       2.77      15.58      16.29
O       1.60      18.73      16.92
H      -0.57      18.95      15.24
C       2.73      19.14      17.34
C      -0.60      15.40      14.25
C       2.76      18.47      13.69
C      -0.57      16.07      17.89
O       3.89      18.24      14.25
O      -1.73      15.80      14.67
