18

Al       0.85       7.41      11.95
Al       4.20       7.40      11.97
H       2.52       9.00      12.65
H      -0.80       5.64      11.69
C       2.55       6.10       9.94
C       2.47       5.51      13.46
C      -0.84       8.71      14.01
C      -0.79       9.27      10.44
O       3.61       5.88      13.02
O       1.42       6.31      10.49
O       0.35       8.76      10.71
O       1.35       6.05      13.23
O       0.28       8.53      13.44
O       3.69       6.48      10.36
O       2.52       8.20      12.11
O      -1.99       8.31      13.61
O      -1.90       8.89      10.94
O      -0.81       6.60      11.87
