18

Zn       5.63       6.01       8.14
Zn       5.74       8.85       8.03
N       5.97      10.85       7.98
N       5.42       4.00       8.19
C       5.80       7.51      10.68
O       5.56       6.21       6.09
O       5.78       8.63      10.07
O       5.79       6.35      10.16
O       5.61       8.49       6.00
O       3.64       6.51       8.26
O       7.73       8.36       7.93
O       7.69       6.08       8.05
O       3.68       8.78       8.09
C       5.44       2.84       8.16
C       6.00      12.01       8.01
C       5.57       7.33       5.48
C       3.11       7.66       8.18
C       8.27       7.21       7.99
