15

Cu       1.15       3.75       7.62
Cu       3.10       5.50       5.81
Cu       4.07       2.69       6.99
C      -0.63       5.99       7.02
C       0.72       7.22       5.78
C       3.09       0.45       8.62
C       1.07       1.22       9.09
C       5.80       5.41       4.69
C       6.49       3.49       5.54
N       1.40       6.12       6.17
N       0.56       5.36       6.94
N       1.70       2.14       8.32
N       2.95       1.66       8.03
N       5.22       3.70       5.96
N       4.80       4.90       5.44
