19

Gd       0.00       9.18       5.48
O      -0.58      10.82       3.67
O       1.71       8.86       3.67
O      -1.13       7.86       3.67
N      -1.84      10.89       3.93
N       2.40       9.92       3.93
N      -0.56       6.73       3.93
O      -2.24      10.22       4.95
O       2.02      10.60       4.95
O       0.22       6.72       4.95
C      -1.02      11.83       7.30
O       3.36      10.27       3.24
O       1.68       8.30       6.78
O      -0.08      11.08       6.78
O      -1.60       8.16       6.78
C       2.81       8.74       7.30
O      -2.62      11.55       3.24
C      -1.78       6.97       7.30
O      -0.74       5.73       3.24
