11

O       3.15       8.07       8.22
O       3.15      10.35       5.49
Co       2.32       9.21       6.85
C       1.38      10.24       9.39
C       1.38       8.18       4.32
N       1.06      10.17       8.08
N       1.06       8.25       5.63
C       4.10       7.38       7.64
C       4.10      11.04       6.07
C      -0.05      10.82       7.65
C      -0.05       7.61       6.05
