15

Cd      -0.00      -0.00      13.53
C      -2.05      -1.15      15.93
N       0.83       1.33      11.66
N      -0.83      -1.33      11.66
C       0.06      -2.07      10.97
N      -0.83      -1.33      15.40
C      -2.05      -1.15      11.13
N       0.83       1.33      15.40
C      -0.06       2.07      16.08
Cl       2.24      -1.33      13.53
C       2.05       1.15      15.93
C       0.06      -2.07      16.08
Cl      -2.24       1.33      13.53
C      -0.06       2.07      10.97
C       2.05       1.15      11.13
