11

Zn       6.47      11.43       7.75
C       4.34      10.96       9.77
C       6.39      10.06      10.35
N       4.91      12.08       6.61
C       7.03       8.91       6.89
N       5.63      10.75       9.48
O       7.36      13.17       7.93
C       4.77      13.40       6.39
O       7.64      10.05       7.06
C       3.96      11.23       6.15
C       8.33      13.20       8.79
