23

Zn       1.63       9.31       1.11
Zn      -0.09       7.75      -1.02
Zn      -0.03      10.96      -0.97
Zn      -1.64       9.38       1.30
O      -0.06       9.34       0.13
O       2.73       7.72       0.77
O      -0.24       8.26      -2.92
O       1.56      12.07      -0.80
O       1.55       6.70      -0.88
O       2.74      10.89       0.75
O      -0.18      10.53      -2.90
O      -1.55      12.10      -0.53
O      -1.03       9.35       3.18
O      -2.78      10.97       1.01
O       1.24       9.35       3.05
O      -1.57       6.57      -0.55
O      -2.75       7.78       0.97
C       2.54       6.79      -0.08
C      -0.22       9.39      -3.51
C       2.57      11.89      -0.03
C      -2.57      11.95       0.22
C       0.12       9.35       3.72
C      -2.57       6.77       0.22
