18

Zn       8.20       8.58       8.15
Zn       7.85       5.80       8.19
N       8.75      10.55       8.23
O       9.86       5.64       8.23
O       6.18       8.75       8.17
O       7.89       6.00      10.26
C       8.07       7.22       5.54
C       8.08       7.15      10.79
C       9.23      11.61       8.24
C       6.76       2.80       8.11
C      10.56       6.70       8.22
C       5.48       7.68       8.22
O       8.17       8.37       6.07
N       7.27       3.84       8.12
O       7.93       6.10       6.13
O       8.19       8.27      10.21
O      10.12       7.89       8.13
O       5.93       6.49       8.20
