15

C       0.35      19.96      16.35
C      -1.60      18.93      16.55
Cu       1.21      16.72      20.94
Cu       1.74      18.83      18.66
Cu      -1.01      17.14      18.78
N       2.59      17.92      21.11
N       2.92      18.77      20.08
N      -0.22      15.56      20.91
N      -1.26      15.82      20.06
N      -0.76      18.42      17.48
N       0.45      19.06      17.35
C       3.27      18.31      22.20
C       3.81      19.67      20.54
C      -2.25      14.95      20.33
C      -0.57      14.52      21.70
