23

Zn       7.66       7.89       9.16
Zn      10.05       7.63       7.01
Zn      10.05      10.04       9.16
Zn       7.90      10.02       6.78
C       9.13       8.68       4.43
C       8.76       9.09      11.63
C       8.74       5.29       8.23
C       9.14      12.49       7.83
C      12.52       8.70       8.23
C       5.31       9.06       7.81
O       8.94       8.89       8.03
O      11.97       7.88       7.42
O       5.97       9.79       6.99
O      11.97       9.58       8.96
O       5.80       8.28       8.71
O       7.93       5.94       8.96
O       8.35      11.92       7.01
O       9.87       7.86       5.07
O       9.64       9.83      11.07
O       8.35       9.56       4.90
O       7.94       8.29      11.06
O       9.63       5.75       7.43
O       9.88      11.94       8.71
