24

Al      -1.33       6.45      13.68
Al      -4.54       6.42      13.79
Al      -3.13       3.78      13.75
C      -1.16       4.18      15.64
O      -0.82       5.22      12.22
O      -2.11       7.59      12.24
O      -5.43       5.50      15.17
O      -4.38       7.69      12.44
O      -5.56       5.44      12.49
O      -4.43       3.47      12.41
O      -1.92       3.23      12.45
O      -0.73       5.23      15.08
O      -2.00       7.57      15.12
O      -4.26       7.72      15.11
O      -4.48       3.45      15.05
O      -1.95       3.32      15.09
O      -3.02       5.54      13.72
H       0.50       7.60      12.79
O       0.21       7.28      13.65
C      -3.27       7.90      11.82
C      -5.23       4.34      11.93
C      -1.16       4.07      11.83
C      -3.10       7.88      15.66
C      -5.12       4.36      15.68
