15

Cu      18.45      20.10       5.03
Cu      20.82      17.97       5.21
Cu      18.35      17.50       3.28
N      20.74      19.34       6.43
C      19.96      21.24       7.26
N      19.79      20.33       6.28
C      21.49      19.65       7.51
C      15.67      18.55       2.72
N      17.00      19.83       3.92
C      15.89      20.54       3.66
C      21.90      15.77       3.58
N      16.87      18.60       3.33
C      20.17      15.48       2.22
N      19.85      16.44       3.11
N      20.92      16.63       3.95
