18

Al       2.27       8.74       9.15
Al       5.59       8.78       9.13
O       5.11       9.81       7.55
O       1.64       7.44      10.40
O       2.76       9.85      10.63
O      -0.44       7.33       7.99
O       2.86      10.05       7.85
O      -0.57       7.81      10.72
O       1.79       7.57       7.67
O       4.96      10.19      10.23
O       3.94       7.93       9.14
O       0.62       9.59       9.07
H       3.96       7.05       8.73
H       0.65      10.41       8.57
C       3.88      10.39      10.89
C       0.65       7.09       7.37
C       3.95      10.23       7.20
C       0.55       7.30      11.04
