15

C      18.00      13.30       7.27
C      21.40      10.00       1.23
C      19.53       9.13       2.04
Cu      20.31      13.65       5.52
Cu      21.66      12.32       2.99
Cu      19.14      10.93       4.33
N      22.35      13.89       3.65
N      21.84      14.41       4.81
N      18.80      12.91       6.26
N      18.39      11.66       5.84
N      19.85      10.20       2.80
N      21.01      10.75       2.29
C      22.58      15.48       5.16
C      23.40      14.65       3.28
C      17.35      11.28       6.62
