23

Zn       4.42       2.74       5.47
Zn       2.84       3.49       8.18
Zn       5.97       3.65       8.28
Zn       4.56       0.81       8.01
O       4.46       2.69       7.48
O       3.06       0.29       9.24
O       6.21       3.45       5.00
O       1.51       4.09       6.90
C       2.19       1.07       9.78
C       6.93       4.29       5.62
C       1.75       4.15       5.64
C       7.00       1.26       9.60
C       4.21       5.63       9.70
C       4.53      -0.21       5.29
O       7.10       2.52       9.38
O       3.09       5.18       9.25
O       4.61      -0.46       6.55
O       5.34       5.10       9.48
O       4.33       0.93       4.76
O       2.80       3.73       5.05
O       6.11       0.48       9.14
O       2.00       2.28       9.47
O       6.80       4.68       6.81
