18

Zn      10.47       6.56       9.25
Zn       7.73       6.78       9.81
N      12.48       6.56       8.86
N       5.75       6.86      10.27
O      10.03       4.56       9.45
O       8.17       8.76       9.97
O       7.75       4.74       9.50
C       8.85       4.09       9.50
O      10.33       8.62       9.24
C       4.61       6.64      10.21
C      13.59       6.86       9.08
C       9.70       6.45      12.05
C       8.53       6.72       6.99
O      10.71       6.63      11.29
O       7.55       6.98       7.76
O       8.48       6.40      11.68
O       9.74       6.52       7.34
C       9.29       9.25       9.61
