20

Zn      15.17      -1.05       4.11
Zn      12.47      -3.03       2.96
C      11.49      -3.79       5.72
C      16.14      -3.06       6.14
N      13.31      -0.36       3.96
N      14.33      -3.25       2.30
N      12.25      -1.11       3.44
N      15.38      -2.43       2.68
C      13.33      -5.01       5.04
C      14.30      -1.86       6.86
N      12.46      -4.02       4.81
N      15.17      -2.16       5.88
O      10.61      -3.55       2.36
O      17.02      -0.27       4.25
C      10.82      -4.81       2.10
C      16.81       0.59       5.21
C      12.80       0.80       4.34
C      14.83      -4.16       1.48
C      11.15      -0.33       3.54
C      16.48      -2.90       2.06
