14

Zn       5.94       0.05      17.46
Zn       3.24       0.05      17.47
C       5.15      -2.47      17.46
C       4.01       0.03      19.98
O       6.29      -1.85      17.45
O       4.00      -1.92      17.45
O       2.86       0.03      19.39
O       5.12       0.03      19.36
O       3.99       2.01      17.49
O       6.28       1.95      17.47
O       5.11       0.05      15.56
O       2.85       0.06      15.54
C       5.13       2.59      17.49
C       4.00       0.06      14.95
