10

Al       0.05      21.47       4.13
O      -1.00      22.17       2.70
O      -1.00      19.88       4.24
O      -1.00      22.36       5.46
O       1.12      20.93       2.63
O       1.12      23.04       4.41
O       1.12      20.44       5.35
C      -1.97      19.63       5.03
C      -1.97      23.17       5.28
C      -1.97      21.62       2.09
