24

Al       1.71       0.95       0.43
Al      -1.49       0.88       0.44
Al      -0.02      -1.74       0.42
C      -0.09       2.15       2.50
C      -2.16      -1.18       2.23
C       1.88      -1.34       2.35
O       0.04       0.02       0.41
O       0.89       2.25      -0.87
O      -2.36      -0.11      -0.98
O       1.32      -2.22      -0.77
O       2.38      -0.38       1.69
O      -1.21       2.07       1.86
O      -1.47      -2.07       1.63
O       1.04       1.89       1.99
O      -2.52      -0.07       1.68
O       1.02      -2.18       1.89
O       2.19      -0.15      -1.15
O      -1.39       2.24      -0.80
O      -1.22      -2.08      -1.01
O       3.25       1.80       0.44
H       3.47       2.26      -0.37
C      -0.24       2.55      -1.32
C      -2.04      -1.23      -1.50
C       2.00      -1.36      -1.46
