23

Zn      16.19      16.24      22.43
Zn      17.69      15.29      25.11
Zn      15.96      17.99      25.09
Zn      14.48      15.18      24.94
C      18.50      17.69      26.67
O      16.09      16.17      24.39
O      17.84      15.43      21.76
O      18.71      16.49      26.30
O      16.02      19.35      23.67
C      16.10      19.20      22.40
C      18.80      14.87      22.40
C      13.69      14.69      22.12
O      14.34      18.31      26.14
O      13.47      14.56      23.37
O      13.27      16.29      26.02
O      14.68      15.31      21.59
O      17.49      18.41      26.29
O      14.95      13.61      26.03
O      18.90      14.74      23.67
C      13.38      17.51      26.40
O      16.17      18.09      21.76
C      16.10      13.18      26.40
O      17.24      13.69      26.14
