13

C      16.95      17.27      12.78
C      12.70      19.70      12.24
C      12.01      15.14      11.46
C      12.73      16.64      10.07
Zn      13.93      17.04      12.82
C      14.09      15.02      15.02
N      15.84      16.62      12.40
N      13.45      16.09      14.51
N      13.52      18.98      13.02
N      12.82      16.25      11.36
C      16.27      15.49      11.73
C      12.33      16.27      15.30
C      13.98      19.85      13.98
