10

Al       3.96      18.41      10.63
C       5.92      18.44      12.69
C       5.92      16.62       9.63
C       5.92      20.18       9.58
O       5.03      19.30       9.31
O       5.03      19.12      12.06
O       5.03      16.82      10.53
O       2.93      20.00      10.38
O       2.93      17.41       9.38
O       2.93      17.84      12.13
