76

Mn      12.52      10.97       6.99
Mn      15.65      12.48       5.49
Mn      18.78      10.97       3.98
Mn       9.39       9.46       5.49
H      16.11       9.57       4.03
H      19.24       9.52       6.88
H       9.85      12.37       6.94
H      12.98      12.42       4.09
H       5.79      12.42       6.88
H       8.92      12.37       4.03
H      12.05       9.52       4.09
H      15.18       9.57       6.94
H      15.31       7.32       2.92
H      18.44       8.40       9.14
H       9.05      14.63       8.05
H      12.18      13.54       1.83
H       6.60      13.54       9.14
H       9.73      14.63       2.92
H      12.86       8.40       1.83
H      15.99       7.32       8.05
H      15.23       8.73       1.83
H      18.36       7.32       7.73
H       8.97      13.22       9.14
H      12.10      14.63       3.24
H       6.68      14.63       7.73
H       9.81      13.22       1.83
H      12.94       7.32       3.24
H      16.07       8.73       9.14
C      12.97      14.01       6.13
C      16.09      11.62       2.45
C       6.71       7.94       4.84
C       9.84      10.32       8.52
C       8.94      10.32       2.45
C      12.07       7.94       6.13
C      15.20      11.62       8.52
C      18.33      14.01       4.84
C      14.08       9.84       4.35
C      17.21       9.84       6.62
C       7.82      12.10       6.62
C      10.95      12.10       4.35
C      14.86       8.31       2.77
C      17.99       8.26       8.15
C       8.60      13.64       8.20
C      11.73      13.68       2.82
C       7.05      13.68       8.15
C      10.18      13.64       2.77
C      13.31       8.26       2.82
C      16.44       8.31       8.20
N      15.18       9.19       3.89
N      18.31       9.38       7.26
N       8.92      12.75       7.08
N      12.05      12.57       3.71
N       6.73      12.57       7.26
N       9.86      12.75       3.89
N      12.99       9.38       3.71
N      16.12       9.19       7.08
O      12.35      13.12       6.80
O      15.48      12.29       3.34
O      18.61       8.82       4.17
O       9.22       9.65       7.63
O       9.56       9.65       3.34
O      12.69       8.82       6.80
O      15.82      12.29       7.63
O      18.95      13.12       4.17
O      14.12      13.88       5.60
O      17.25      11.09       2.58
O       7.86       8.06       5.37
O      10.99      10.85       8.39
O      20.31      10.85       2.58
O      10.92       8.06       5.60
O      14.05      11.09       8.39
O      17.18      13.88       5.37
O      14.08      10.74       5.26
O      17.21      10.74       5.72
O       7.82      11.20       5.72
O      10.95      11.20       5.26
