19

N       4.76       0.18      13.37
Zn       3.24       2.24      10.00
N       4.18       3.48      13.58
Zn       3.33       1.66      13.39
C       1.37       1.79      15.30
O       4.24       3.91       9.84
O       4.16       0.58       9.40
O       2.38       1.72      11.69
O       2.15       0.88      14.80
C       1.83       3.81       7.89
C       0.64       1.96       8.60
C       4.54      -0.91      14.14
C       5.86       0.19      12.58
C       5.50       3.60      13.84
H       2.18       0.80      11.42
C       3.68      -0.54       9.81
C       3.48       4.60      13.31
C       5.42       3.92      10.38
N       1.76       2.70       8.65
