24

O      -1.51       7.08       0.90
O      -4.02       6.75       0.81
Al      -4.72       9.89      -0.39
Al      -1.49      10.03      -0.50
Al      -2.81       7.32      -0.47
O      -5.27       8.58      -1.74
O      -1.40       7.06      -1.74
O      -3.88       6.79      -1.89
O      -2.98       9.07      -0.47
O      -4.10      11.00      -1.93
O      -1.85      11.25      -1.88
O      -0.49       9.14      -1.83
O      -5.14       8.72       1.10
O      -3.96      11.11       0.97
O      -1.71      11.34       0.78
O      -0.50       9.12       0.84
O      -6.26      10.70      -0.33
H      -6.68      10.90      -1.17
C      -2.84      11.47       1.39
C      -0.78       8.01       1.41
C      -4.75       7.58       1.48
C      -3.01      11.35      -2.44
C      -0.75       7.99      -2.34
C      -4.77       7.60      -2.37
