13

O      11.07      27.96       5.20
O      12.42      28.68       3.54
Zn      14.10      27.60       3.21
O      15.63      28.76       3.42
Zn      12.14      26.37       5.02
C      12.87      25.02       2.66
O      13.19      25.67       6.53
O      14.36      27.14       5.33
C      14.22      26.43       6.38
O      13.83      25.83       2.43
O      11.92      25.23       3.50
C      11.46      28.86       4.35
C      15.38      29.65       2.49
