23

Zn      16.53       1.15       1.84
Zn      17.93       0.15      -0.87
Zn      18.17      -1.62       1.66
Zn      19.74       1.17       1.68
O      17.95      -1.73      -1.52
O      17.63      -2.96       0.37
O      20.90       1.31       0.09
O      19.49       1.00      -1.69
O      20.43       0.16       3.24
O      20.05      -1.84       2.24
C      15.20       1.26      -0.76
C      16.28      -1.01       3.81
C      18.18       3.40       2.79
C      17.69      -2.79      -0.89
C      20.62       1.25      -1.14
C      20.42      -1.10       3.22
O      18.08       0.26       1.07
O      16.12       0.68      -1.40
O      15.19       1.61       0.47
O      17.25      -1.71       3.40
O      15.74       0.00       3.25
O      19.29       2.98       2.36
O      17.05       2.81       2.75
