62

Sm      11.59       2.51      14.94
C       9.04       0.44      15.89
Sm       9.24       0.35      12.47
C      11.79       2.43      11.52
C      12.35      -0.27      14.25
C       8.48       3.14      13.15
H      10.04       6.86      16.80
H      10.79      -3.99      10.60
C       9.95       6.29      17.74
H      10.33       6.89      18.57
C      10.88      -3.43       9.67
H      10.50      -4.03       8.83
H       8.91       5.99      17.90
C      10.62       4.06      19.14
C      10.21      -1.20       8.26
H      11.92      -3.12       9.50
H       9.54       3.95      19.24
C      13.91       6.67      14.88
H      11.29      -1.09       8.16
C       6.92      -3.81      12.53
H      11.04       4.69      19.95
C      12.57       6.62      12.51
H       9.79      -1.82       7.46
C       8.26      -3.76      14.89
S      11.00       4.83      17.55
H      11.12       3.09      19.12
S       9.83      -1.97       9.85
H       9.71      -0.23       8.29
S      13.18       5.46      13.75
H      13.14       7.38      15.20
S       7.65      -2.60      13.65
H       7.70      -4.52      12.20
H      14.74       7.19      14.37
H       6.10      -4.33      13.04
H      14.30       6.10      15.73
H       6.53      -3.24      11.67
H      12.03       6.02      11.77
H       8.80      -3.16      15.64
O      12.77       2.62      17.13
H      13.42       7.12      12.04
O       8.06       0.24      10.28
H       7.41      -4.26      15.37
O      13.97       3.24      15.35
H      11.89       7.35      12.98
O       6.86      -0.38      12.06
H       8.95      -4.48      14.43
C      13.86       3.06      16.60
O       8.54       0.13      14.75
O      12.29       2.73      12.65
C       6.97      -0.20      10.80
O      10.13       1.06      16.09
C      15.00       3.42      17.50
O      10.70       1.81      11.31
C       5.83      -0.55       9.91
O      11.29       0.11      13.63
O       9.55       2.76      13.77
O      12.99       0.52      15.01
O       7.84       2.35      12.40
O      10.29       3.98      16.52
O      10.54      -1.11      10.89
O      11.93       4.99      14.47
O       8.90      -2.13      12.93
