23

Zn      22.77       8.09       1.97
Zn      24.44       7.11      -0.56
Zn      22.83       9.89      -0.65
Zn      21.25       7.06      -0.74
C      22.97       5.14      -2.15
C      22.98      11.02       2.03
C      25.26       6.57       2.23
C      20.30       9.49      -2.11
C      25.49       9.54      -1.83
C      20.24       6.61       2.01
O      22.80       8.03      -0.00
O      24.24       7.09       2.79
O      20.12       8.27      -1.82
O      24.07       5.57      -1.69
O      22.78      11.22       0.79
O      21.80       5.57      -1.89
O      23.04       9.91       2.64
O      25.49       6.49       0.98
O      21.31      10.22      -1.84
O      25.63       8.30      -1.57
O      20.13       6.44       0.76
O      24.54      10.31      -1.51
O      21.12       7.27       2.64
