24

Zn       0.73      12.78       5.82
Zn       0.73      16.29       5.82
Zn       2.74      14.54       7.73
H       2.50      14.54       5.21
C      -2.24      15.62       5.31
C       5.50      13.45       7.33
C       0.45      17.80       8.50
C       0.45      11.27       8.50
C       5.50      15.62       7.33
C      -2.24      13.45       5.31
N       0.99      12.21       7.72
N       0.99      16.86       7.72
C       1.88      12.35       9.70
C       1.88      16.72       9.70
N       1.90      12.90       8.48
N       1.90      16.17       8.48
N      -0.99      15.22       5.56
N      -0.99      13.85       5.56
N       4.69      14.54       7.50
C       1.74      11.33       4.03
C       1.74      17.74       4.03
O       0.50      11.35       4.41
O       0.50      17.72       4.41
O       1.84      14.54       5.93
