44

O       1.87      -0.21      12.20
Cd       1.62      -1.45      10.18
Cd       3.26      -3.54       7.45
O       3.01      -4.77       5.43
O       3.03      -3.01      11.40
O       1.85      -1.98       6.23
H       1.90      -4.72      11.16
H       2.98      -0.27       6.47
H       5.19      -3.65      12.17
H      -0.31      -1.34       5.46
H       5.74      -5.33      12.48
H      -0.85       0.34       5.15
H       4.86      -4.42      13.74
H       0.03      -0.57       3.89
H       2.37      -6.69      11.93
H       2.52       1.70       5.70
H       3.57      -6.85      13.24
H       1.32       1.86       4.39
H       4.08      -7.06      11.54
H       0.80       2.08       6.09
C       0.83      -0.69      12.78
C       4.06      -4.30       4.85
C       2.82      -4.23      11.53
C       2.06      -0.75       6.10
C       4.48      -6.59       7.85
C      -0.40      -3.97       9.79
C       0.40       1.60       9.78
C       5.29      -1.01       7.85
C       5.61      -5.25       9.08
C       0.72      -5.31       8.55
C      -0.72       0.27       8.55
C       4.16       0.32       9.08
C       4.94      -4.59      12.66
C      -0.06      -0.39       4.97
C       3.41      -6.50      12.21
C       1.47       1.52       5.42
N       0.61      -3.26       9.27
N       4.27      -1.73       8.36
N       3.68      -5.08      12.12
N       1.20       0.09       5.51
N       4.51      -5.30       8.29
N       0.38       0.31       9.34
N       1.34      -4.13       8.48
N       3.55      -0.85       9.15
