23

Zn      10.64      18.44       0.95
Zn       8.96      16.89      -1.23
Zn       9.09      20.07      -1.31
Zn       7.42      18.53       1.04
O       9.00      18.51      -0.12
O      11.80      16.91       0.53
O       9.25      17.31      -3.12
O      10.67      21.19      -0.96
O      10.37      15.64      -0.69
O      11.71      20.06       0.72
O       9.11      19.58      -3.22
O       7.51      21.18      -0.97
O       7.90      18.51       2.96
O       6.32      20.12       0.65
O      10.17      18.30       2.85
O       7.27      15.93      -1.06
O       6.33      16.90       0.77
C      11.47      15.84      -0.08
C       9.19      18.42      -3.75
C      11.58      21.05      -0.08
C       6.53      21.09      -0.16
C       9.07      18.38       3.48
C       6.41      15.99      -0.12
