18

Al       1.31       9.25       8.69
Al       4.63       9.25       8.72
O       3.99      10.61       9.88
O       0.84       7.56       7.87
O       1.92       8.27      10.28
O      -1.51      10.57       7.46
O       1.79      10.92       9.46
O      -1.39       7.84       7.50
O       0.68      10.17       7.13
O       4.15       7.93      10.05
H       2.99       8.33       7.24
H      -0.30       8.85      10.39
O       2.97       9.05       7.88
O      -0.33       9.33       9.55
C       3.03       7.75      10.63
C      -0.44      10.68       6.80
C       2.89      11.23      10.04
C      -0.27       7.24       7.32
