20

Zn       1.96       5.95       8.63
Zn       1.56       9.00       8.46
C       3.10       3.36       9.82
C       0.52      11.75       7.64
C       1.67       3.02       7.97
N       2.23       3.85       8.89
N       1.45      11.12       8.42
O       1.33       6.50      10.52
O       1.65       8.30       6.47
O       1.30       8.76      10.56
O       2.58       6.24       6.63
O       3.84       6.63       9.02
O      -0.35       8.36       8.47
O       3.56       8.81       8.43
O      -0.01       6.14       8.12
C       1.06       7.61      11.06
C       2.25      11.83       9.26
C       4.27       7.77       8.67
C      -0.75       7.16       8.33
C       2.27       7.30       6.00
