36

Zn       7.71      -5.90      10.50
Zn      10.31      -7.88      10.54
Zn      10.26      -7.84      13.82
Zn       7.66      -5.78      13.69
C       6.37      -8.47       9.88
C      10.62      -6.62       7.61
C       7.98      -9.69      14.24
C       8.67      -5.15      16.51
C      12.06     -10.34      11.11
C       9.17      -3.29      10.96
C       4.76      -4.67      13.11
C      12.52      -5.91      13.10
C      11.86     -10.52      13.30
C       9.24      -3.28      13.17
C       4.85      -4.74      10.89
C      12.05      -5.52      10.97
C       6.28      -8.31      13.99
C      10.46      -6.41      16.59
C       8.10      -9.82       9.76
C       8.86      -5.32       7.67
N       7.40      -7.89      10.52
N       8.81      -4.51      11.41
N      11.45      -9.23      11.56
N       5.96      -5.18      12.75
N      11.34      -6.48      12.82
N      11.32      -9.34      12.93
N       8.86      -4.50      12.76
N       9.94      -6.90       8.74
N       6.00      -5.23      11.36
N      11.07      -6.28      11.49
N       7.37      -7.75      13.43
N       9.74      -6.80      15.52
N       8.48      -8.72      10.46
N       8.84      -6.09       8.78
N       8.42      -8.60      13.58
N       8.61      -6.01      15.47
