23

Zn       7.53       8.97      15.52
Zn       7.30      10.78      18.18
Zn       8.96      11.84      15.65
Zn       5.75      11.71      15.59
O       7.38      10.81      16.22
O       7.39       7.65      16.97
C       7.42       7.83      18.24
C      10.10       9.51      14.22
C       5.00       9.30      14.03
O       9.19       8.66      14.52
O       8.72      11.87      19.01
O       7.49       8.96      18.84
O      10.07      12.28      17.23
O       8.48      13.48      14.71
O       6.05       8.62      14.24
O       5.63      11.53      18.87
O       4.68      10.41      14.56
O       6.22      13.22      14.45
O       4.58      12.35      17.02
C       9.77      12.33      18.46
C       7.33      13.83      14.26
O      10.12      10.75      14.52
C       4.69      12.15      18.28
