12

O       6.64       8.49      13.38
C       9.07       4.66      14.64
N       6.47       7.92      16.33
Cu       7.44       7.06      14.52
O       5.98       5.83      13.94
C      10.14       7.98      14.08
C       5.95       7.23      17.36
O       8.45       5.51      15.36
C       7.02       8.67      12.18
O       9.09       8.16      14.79
C       6.58       9.26      16.43
C       5.94       5.38      12.74
