18

Al       5.41      10.02       0.06
Al       2.04      10.12       0.08
H       3.79      11.76       0.53
H       7.15       8.38       0.54
O       2.56       9.05      -1.43
O       4.91       8.88       1.57
O       6.00      11.34       1.34
O       4.75       8.63      -1.08
O       5.95      11.16      -1.38
O       2.65       8.72       1.31
O       3.74      10.88       0.12
O       8.14      11.57      -1.00
O       8.25      11.17       1.64
O       7.11       9.23       0.08
C       3.76       8.46       1.88
C       3.64       8.41      -1.67
C       7.02      11.82      -1.57
C       7.09      11.58       1.97
