18

O       2.58       5.10      23.08
O       2.58       5.10      20.34
Al       2.05       6.33      21.71
Al       5.38       6.36      21.71
O      -0.75       7.61      20.35
O      -0.75       7.61      23.08
C       3.72       4.76      19.87
C       3.72       4.76      23.55
O       4.85       5.13      20.33
O       4.85       5.13      23.09
C       0.39       7.98      23.51
C       0.39       7.98      19.91
O       1.51       7.58      23.07
O       1.51       7.58      20.36
O       3.71       7.15      21.71
O       0.37       5.54      21.71
H       3.70       8.12      21.71
H       0.35       4.57      21.71
