13

Ni       2.66       9.15      15.85
C       2.71       7.36      18.22
O       1.12       8.47      14.67
O       1.12       9.83      17.04
O       4.19       8.47      14.67
C       2.61      12.10      15.49
O       4.19       9.84      17.04
C       2.61       6.21      16.22
C       0.00       8.76      15.17
C       0.00       9.54      16.53
N       2.66      10.93      14.83
C       2.71      10.94      13.48
N       2.66       7.38      16.88
