18

Al       1.24       6.33       7.28
C       2.85       4.80       5.40
C      -0.45       8.03       5.54
Al       4.54       6.34       7.31
C      -0.35       7.87       9.16
H       2.89       8.03       6.86
O       3.96       5.02       5.98
O       1.82       4.95       8.47
O       0.75       7.35       8.79
O       1.72       5.26       5.74
H      -0.42       4.79       6.50
O       0.67       7.77       6.08
O       4.06       5.14       8.71
O       2.89       7.16       7.29
O      -1.58       7.55       5.86
O      -1.48       7.60       8.62
C       2.93       4.65       9.01
O      -0.41       5.50       7.18
