27

N       6.21       8.70      20.04
N       5.35       2.87      20.04
Zn       4.64       6.93      18.41
Zn       6.93       4.64      18.41
N       6.21       2.87      18.97
N       5.35       8.70      18.97
Zn       4.64       4.64      20.60
Zn       6.93       6.93      20.60
O       4.98       6.59      16.48
O       6.59       4.98      16.48
O       4.98       4.98      22.54
O       6.59       6.59      22.54
O       5.78       5.78      19.51
C       1.59       6.48      18.64
C       9.98       5.08      18.64
C       1.59       5.08      20.38
C       9.97       6.48      20.38
C       6.48       9.97      20.38
C       5.08       1.59      20.38
C       6.48       1.59      18.64
C       5.08       9.97      18.64
C       5.78       5.78      15.90
C       5.78       5.78      23.11
N       2.87       6.21      18.97
N       8.70       5.35      18.97
N       2.87       5.35      20.04
N       8.70       6.21      20.04
