23

Zn      17.79       5.02      32.04
Zn      14.56       4.89      31.82
Zn      16.31       2.18      31.87
Zn      16.04       3.93      34.51
C      16.16       7.02      30.56
C      13.80       2.47      30.31
C      18.91       2.71      30.58
C      16.17       0.99      34.57
C      18.55       5.50      34.84
C      13.45       5.34      34.52
O      16.17       4.02      32.55
O      17.30       6.58      30.94
O      13.55       3.68      30.64
O      17.95       1.90      30.85
O      15.02       6.51      30.80
O      19.01       3.93      30.95
O      14.79       1.78      30.70
O      16.29       0.84      33.31
O      17.56       4.87      35.33
O      16.06       2.09      35.21
O      18.80       5.66      33.60
O      13.34       5.47      33.25
O      14.40       4.77      35.16
