23

Zn      12.17       7.16       0.64
Zn      13.87       8.17      -1.90
Zn      15.37       7.19       0.75
Zn      13.81       9.98       0.68
O      13.49      11.28      -0.76
O      11.18       6.39      -0.87
O      12.63       5.74       1.92
O      12.12       7.59      -2.57
O      16.40       8.34       1.95
O      15.41       7.22      -2.65
O      12.36      10.24       1.98
O      16.53       6.68      -0.74
O      11.03       8.42       1.65
O      15.52      10.41       1.54
O      13.99      10.01      -2.59
O      14.90       5.55       1.73
C      13.69      11.11      -2.02
C      13.76       5.20       2.19
C      11.22       6.82      -2.08
C      16.39       9.62       2.05
C      16.39       6.70      -2.00
C      11.30       9.56       2.15
O      13.79       8.12       0.06
