14

C      10.26      11.93       6.03
O      10.65      13.08       6.39
O       7.66      13.82       6.71
O       9.26      11.27       6.51
Zn       8.45      12.34       7.93
Zn      10.09      14.49       7.90
O       7.35      12.73       9.47
O       9.12      15.57       6.63
O       8.61      14.61       9.40
C       8.03      14.97       6.30
C       7.70      13.89       9.91
C      11.13      12.80       9.61
O      10.15      12.11       9.18
O      11.47      13.96       9.15
