18

Al       5.30      21.01      19.80
H       3.60      20.42      21.40
Al       1.99      21.07      19.75
H       6.91      21.67      18.16
C       3.64      19.33      18.05
C       6.95      22.75      21.50
O       2.51      22.54      18.60
C       3.67      22.97      18.30
O       5.82      19.54      20.96
C       6.98      19.12      21.26
O       4.78      19.74      18.45
O       8.09      22.35      21.11
O       4.77      22.47      18.68
O       8.08      19.62      20.88
O       5.82      22.29      21.13
O       2.51      19.80      18.42
O       3.64      20.96      20.60
O       6.94      21.12      18.96
