23

Zn       3.95       7.89       8.81
Zn       5.18       4.98       9.36
Zn       3.27       6.38      11.55
Zn       2.04       5.28       8.81
C       6.64       7.09       7.89
C       5.59       4.68      12.27
C       3.61       9.31      11.38
C       0.58       5.17      11.38
C       1.63       7.58       7.00
C       3.61       2.95       7.89
O       3.61       6.13       9.63
O       5.73       7.97       7.98
O       5.93       4.43      11.08
O       3.36       8.27      12.07
O       6.59       5.90       8.35
O       3.86       9.34      10.13
O       4.60       5.41      12.61
O       1.49       5.72      12.07
O       1.29       6.44       7.43
O       0.63       4.93      10.13
O       2.62       8.25       7.43
O       4.73       3.36       8.35
O       2.49       3.56       7.98
