13

Ni       9.62       5.79       5.68
N       8.75       5.41       7.45
C      10.17       3.03       4.75
O       7.97       5.29       4.51
O      11.19       6.96       6.35
C       7.44       5.13       7.45
N      10.65       4.08       5.44
C       8.48       5.86       3.48
O       9.26       7.97       5.91
C       9.38       5.59       8.63
O       9.68       6.30       3.52
C      10.49       8.03       6.21
C      11.89       3.99       5.95
