23

Zn       7.97      13.27       4.40
Zn       7.19      11.13       2.13
Zn       5.11      11.87       4.44
Zn       5.82      14.02       2.15
C       6.54      12.58       6.89
C       6.58      12.61      -0.34
C       5.96       9.10       3.77
C       9.97      11.81       2.86
O       5.42      12.29       6.33
O       7.63      12.87       6.29
O       7.00      11.55       0.23
O       6.11      13.64       0.24
O       6.52      12.57       3.27
O       9.73      12.67       3.79
O       9.14      10.95       2.41
O       6.50       9.37       2.63
O       5.24       9.89       4.46
C       7.16      16.06       3.74
C       3.06      13.16       2.86
O       3.32      12.31       3.79
O       3.86      14.02       2.38
O       6.41      15.79       2.74
O       7.95      15.24       4.32
