18

O       2.47      15.96       0.18
O       0.28      15.77       1.59
Al       4.13      16.77      -0.01
Al       0.79      16.73       0.02
O       0.21      15.27      -1.09
O       5.82      17.56      -0.12
C       2.44      18.11      -2.02
C       2.49      18.65       1.53
H       2.51      15.28       0.87
H       5.83      18.51       0.09
C       5.80      15.39       2.01
C       5.76      14.94      -1.58
O       1.37      18.28       1.06
O       3.53      17.91      -1.42
O       4.62      15.45      -1.32
O       3.64      18.17       1.26
O       4.70      15.64       1.42
O       1.31      17.62      -1.63
