14

O       0.00      11.29      14.92
O       0.00      11.29      17.21
O       0.00       7.25      14.92
O       0.00       7.25      17.21
C       2.58       9.27      16.06
O      -2.01       9.27      14.92
Zn      -0.00       9.27      14.76
C       0.00      11.85      16.06
Zn      -0.00       9.27      17.37
O      -2.01       9.27      17.21
C       0.00       6.68      16.06
C      -2.58       9.27      16.06
O       2.01       9.27      14.92
O       2.01       9.27      17.21
