14

Zn       2.96      12.91      17.30
Zn       5.61      13.12      17.30
O       3.75      10.98      17.30
O       6.01      11.22      17.29
O       4.84      13.06      15.39
O       2.58      12.94      15.38
C       4.93      10.51      17.30
O       3.63      14.91      17.30
O       2.57      12.93      19.22
C       3.73      13.01      14.76
C       4.71      15.58      17.30
C       3.73      13.00      19.84
O       5.89      15.05      17.30
O       4.83      13.04      19.21
