18

Al       2.65       5.00       8.39
Al       6.03       5.00       8.39
H       4.32       6.34       9.59
H       0.97       3.66       7.20
O       2.04       6.83       8.38
O      -0.13       5.07      10.20
O       5.49       3.19       8.66
O       3.17       5.16       6.55
O       3.25       3.17       8.41
O       5.42       4.93       6.58
O      -0.20       6.81       8.13
O       2.12       4.84      10.23
C       0.93       7.43       8.26
C       0.96       4.91      10.82
C       4.36       2.57       8.52
C       4.33       5.09       5.96
O       4.34       5.60       8.95
O       0.95       4.40       7.83
