35

Tb       7.00      20.27      10.54
Tb       4.33      16.93       9.16
C       8.14      17.62      12.12
C       5.79      17.60      13.13
C       5.19      17.53      11.77
C       7.04      21.56      13.07
C       7.27      22.07      14.46
H       9.73      21.56      10.09
H       9.74      20.01       9.63
H       6.14      23.08       9.66
H       7.72      23.14       9.77
H       1.57      16.75      10.39
H       1.39      16.50       8.79
H       3.75      14.23       8.21
H       2.75      14.49       9.39
H       6.97      15.42       8.81
H       5.96      14.49       9.62
C       3.98      15.50       6.14
O       4.86      20.81       9.78
O       3.78      19.12       8.74
O       7.18      19.29       8.53
O       6.06      17.51       7.72
O       8.34      18.79      11.62
O       9.17      20.78       9.80
O       6.97      22.54       9.62
O       5.73      18.19      10.80
O       2.04      16.78       9.49
O       4.19      16.78      11.55
C       4.13      20.34       8.86
O       3.70      14.44       9.18
O       6.19      15.42       9.43
C       7.01      18.35       7.69
O       6.03      20.85      12.74
O       7.98      21.79      12.23
O       3.64      16.36       7.00
