18

Al       0.66       7.91       8.39
Al       4.01       7.85       8.40
H       2.29       6.27       9.04
H      -1.06       9.49       7.75
O       3.48       8.96       6.94
O       0.12       6.81       9.85
C       2.36       9.58      10.12
C      -1.00       6.18       6.67
C       2.36       9.36       6.50
C      -1.00       6.40      10.29
O       1.20       9.26       9.69
O      -2.15       6.51       7.10
O       1.21       9.06       6.96
O      -2.14       6.71       9.83
O       0.14       6.57       7.09
O       3.49       9.19       9.70
O       2.33       7.08       8.49
O      -1.03       8.69       8.29
