13

C      16.95       1.98       6.47
Zn      13.93       2.21       6.43
C      14.09       4.23       4.23
N      15.84       2.63       6.86
N      13.45       3.16       4.74
N      13.52       0.28       6.23
N      12.82       3.01       7.90
C      16.27       3.76       7.52
C      12.33       2.98       3.95
C      13.98      -0.60       5.27
C      12.01       4.12       7.79
C      12.70      -0.45       7.01
C      12.73       2.61       9.18
