11

O       2.94      10.35       1.36
Co       3.76       9.21       0.00
C       4.71       8.18       2.54
C       4.71      10.24      -2.54
O       2.94       8.07      -1.36
N       5.03       8.25       1.22
N       5.03      10.17      -1.22
C       1.99      11.04       0.79
C       1.99       7.38      -0.79
C       6.14       7.61       0.80
C       6.14      10.82      -0.80
