18

O       5.50      16.93       1.55
O       3.21      16.47      -1.13
Al       2.68      17.92      -0.01
Al       6.03      17.92      -0.04
O       2.15      18.88      -1.57
O       3.22      16.92       1.57
O       2.16      19.40       1.13
O       5.49      16.48      -1.17
O       4.36      18.72      -0.12
O       6.56      19.43       1.08
O       6.56      18.87      -1.61
H       4.36      19.65       0.14
H       7.69      16.35       0.72
C       4.35      16.04      -1.53
C       4.37      16.66       2.06
C       7.70      19.83       1.48
C       7.71      19.14      -2.09
O       7.70      17.14       0.16
