23

Zn      18.13      10.28       5.86
Zn      16.54      11.20       8.56
Zn      19.75      11.19       8.50
Zn      18.13       8.47       8.48
C      15.55      11.69       5.80
C      18.14       7.35       5.75
C      20.68      11.75       5.74
C      15.63       8.83       9.99
C      18.16      13.21       9.95
C      20.70       8.80       9.87
O      15.35      11.60       7.05
O      16.58      11.29       5.16
O      18.32       7.21       7.00
O      18.00       8.45       5.12
O      20.72      11.98       6.99
O      19.78      11.07       5.12
O      16.45       8.07       9.40
O      15.55      10.10       9.86
O      19.25      12.58       9.78
O      17.02      12.87       9.48
O      19.59       8.19       9.73
O      20.99       9.95       9.39
O      18.13      10.31       7.82
