35

Zn       5.22       7.81       0.13
Zn       3.51       4.16       0.29
Zn       2.50       7.17      -1.84
Zn       5.98       5.16       1.98
C       3.02       9.27       1.47
C       1.89       5.31       2.62
C       6.14       9.07       2.70
C       6.38       1.99       2.30
C       7.95       4.99      -0.26
C      -0.34       6.62      -2.29
C       1.26       8.72       0.25
C       6.73       7.36       3.94
C       3.67       5.93       3.76
C       7.17       6.51      -1.66
C       4.70       1.50       0.95
C       3.26       3.06      -2.41
C       5.88       9.45      -2.42
C       4.16       8.82      -3.64
C       3.05       4.89      -3.62
N       3.31       8.14       0.79
N       2.22       7.80       0.04
N       0.76       7.24      -2.76
N       6.65       6.93       2.66
N       4.07       5.58       2.52
N       6.21       6.26      -0.74
N       4.75       2.83       1.10
N       0.47       7.91      -3.91
N       3.16       4.13      -1.57
N       4.98       8.86      -1.60
N       3.92       8.46      -2.36
N       3.04       5.26      -2.32
N       5.77       3.15       1.96
N       6.69       5.30       0.12
N       2.97       5.21       1.81
N       6.27       8.00       1.88
