41

Ni      10.78      11.54       9.18
Ni      13.70      12.31       5.42
Ni      11.32       6.72       7.30
P       9.33       9.20       7.85
P      12.11       9.89       6.85
P      15.14      14.65       6.75
P      12.36      13.96       7.75
H      10.81      12.25       6.75
H      13.66      11.60       7.85
C      10.28      10.28       6.68
C      16.59      11.47       5.14
C      15.25       9.94       4.37
C       9.69       5.99       4.96
C      11.69       7.02       4.38
C      12.18      12.25      11.68
C      11.30      10.11      11.71
C      14.19      13.58       7.92
C       7.88      12.39       9.45
C       9.22      13.92      10.23
C      12.94       7.44       9.64
C      10.95       6.41      10.21
C      12.29      11.61       2.92
C      13.17      13.75       2.89
N      15.32      11.23       4.83
N      10.89       6.48       5.33
N      11.50      11.27      11.05
N       9.15      12.62       9.77
N      11.75       6.95       9.27
N      12.97      12.59       3.55
O       9.49       7.75       7.46
O       9.77       9.70       9.22
O      12.36       8.40       6.85
O      12.49      10.61       8.18
O      12.73      10.55       5.61
O      10.09      11.63       7.15
O      13.15       5.68       7.14
O      14.70      14.16       5.38
O      12.11      15.46       7.75
O      11.98      13.25       6.42
O      11.74      13.31       8.99
O      14.38      12.22       7.45
