23

Zn      12.87      14.09      10.12
Zn      13.03      12.32       7.47
Zn      11.41      15.08       7.44
Zn      14.61      15.15       7.65
C      12.89      11.14      10.17
C      10.57      12.69       5.86
C      10.27      15.51      10.13
C      13.01      17.17       6.22
C      15.40      15.56      10.44
C      15.59      12.88       6.12
O      12.97      14.16       8.16
O      12.89      12.25      10.81
O      11.60      12.01       6.17
O      10.20      15.70       8.86
O      12.88      10.99       8.90
O      11.20      14.91      10.76
O      10.32      13.88       6.30
O      11.88      16.57       6.24
O      15.71      15.59       9.20
O      14.04      16.89       6.90
O      14.35      15.05      10.95
O      14.82      12.05       6.69
O      15.61      14.15       6.27
