18

Al       5.00      15.56       5.89
C       3.32      17.23       7.66
Al       1.66      15.56       5.89
C       3.35      17.13       4.06
C       6.68      13.94       4.10
O       2.18      16.82       7.27
C       6.66      13.98       7.73
O       3.33      14.76       5.93
O       1.15      14.33       4.51
O       1.11      14.30       7.25
O       6.68      16.36       5.88
O       4.49      16.74       4.46
O       2.21      16.81       4.53
O       4.46      16.91       7.18
O       5.52      14.38       7.33
H       3.33      13.88       6.33
O       5.55      14.26       4.59
H       6.68      17.32       5.81
