23

Zn      17.72       5.03      32.03
Zn      14.50       4.85      31.83
Zn      16.28       2.15      31.89
Zn      15.96       3.93      34.51
C      16.09       7.01      30.56
C      13.76       2.43      30.32
C      18.86       2.70      30.58
C      16.12       0.98      34.59
C      18.48       5.50      34.84
C      13.37       5.32      34.52
O      16.12       3.99      32.55
O      17.24       6.60      30.95
O      13.51       3.63      30.64
O      17.92       1.87      30.86
O      14.96       6.46      30.80
O      18.93       3.92      30.95
O      14.76       1.74      30.71
O      16.25       0.81      33.33
O      17.48       4.88      35.32
O      15.99       2.10      35.20
O      18.74       5.67      33.60
O      13.28       5.42      33.25
O      14.33       4.78      35.18
