23

C      21.95      10.30      10.49
Zn      17.84      12.42       8.93
Zn      21.04      12.64       9.04
Zn      19.57      11.66       6.38
Zn      19.60       9.80       8.95
C      22.00      13.21       6.37
C      19.60       8.79       6.25
O      20.32      14.34       9.76
O      18.29      13.58      10.47
O      18.31       9.59      10.44
O      16.69      10.95       9.57
O      17.77      12.13       5.74
O      17.06      13.46       7.45
O      21.43       9.51       9.62
O      21.80      11.57      10.53
O      20.84      13.07       5.85
O      22.33      12.94       7.57
O      20.11       9.86       5.78
O      19.14       8.63       7.43
O      19.52      11.64       8.33
C      19.26      14.41      10.49
C      17.10      10.01      10.35
C      17.07      13.09       6.22
