23

Zn      18.53      12.54       9.80
Zn      16.95      11.46       7.27
Zn      20.15      11.54       7.19
Zn      18.43      14.27       7.07
C      15.99      11.10      10.05
C      18.57       9.41       5.91
C      21.10      11.12       9.98
C      21.02      13.88       5.65
C      18.46      15.50       9.75
C      15.91      13.76       5.68
O      18.54      12.46       7.84
O      16.97      11.68      10.63
O      17.44       9.86       6.27
O      21.27      11.00       8.72
O      15.83      10.95       8.79
O      20.11      11.68      10.57
O      19.73       9.92       6.17
O      21.27      12.69       6.05
O      18.41      15.63       8.48
O      20.00      14.58       5.93
O      18.51      14.40      10.41
O      15.82      12.57       6.10
O      16.85      14.59       5.94
