16

C       4.98      -2.92      19.58
Zn       5.94       0.01      19.30
C       7.48      -2.65      19.58
C       3.26      -1.54      19.48
N       5.94       0.01      17.10
N       4.33       1.30      19.53
C       6.60      -0.94      16.41
C       8.88      -0.93      19.48
C       5.28       0.95      16.41
C       3.00       0.95      19.48
N       7.54      -1.28      19.54
N       4.63      -1.59      19.54
C       4.39       2.67      19.58
N       7.24       1.61      19.54
C       6.89       2.93      19.59
C       8.61       1.55      19.48
