20

Zn       7.77       8.71       8.85
Zn      10.58       8.83       8.76
C       9.33       8.72      11.39
C       9.30       6.06       8.80
C       9.05       8.71       6.23
C       9.06      11.41       8.84
C      13.42       8.09       9.44
C      13.30       9.72       7.82
C       4.87       9.36       8.17
C       5.02       7.76       9.77
N      12.67       8.89       8.65
N       5.65       8.60       8.94
O       8.20       8.74      10.82
O      10.46       8.71      10.81
O      10.42       6.71       8.78
O       8.16       6.64       8.83
O      10.20       8.75       6.77
O       7.94       8.68       6.84
O       7.93      10.78       8.85
O      10.19      10.84       8.84
