22

Cd       9.24       2.09       6.62
Cd       8.62      -1.47       8.05
C      10.77       3.83       5.10
C       7.09      -3.21       9.56
C       6.99       1.66       8.31
C      10.87      -1.05       6.35
N       8.03       1.56       4.64
N       9.83      -0.94      10.02
N      10.53       2.46       8.57
N       7.33      -1.84       6.09
O       9.74       4.23       5.76
O       8.12      -3.61       8.90
O       7.66       0.69       7.79
O      10.20      -0.07       6.87
C       8.70       1.41       3.48
C       9.16      -0.79      11.18
C       6.69       1.66       4.60
C      11.17      -1.04      10.06
C      11.87       2.38       8.55
C       5.99      -1.76       6.12
C       9.91       2.54       9.76
C       7.95      -1.92       4.90
