14

O      23.84      22.18      18.19
O      21.51      23.83      18.19
O      23.84      21.51      20.37
O      21.51      19.85      20.37
Zn      21.85      21.84      18.00
O      22.18      23.83      20.37
Zn      21.85      21.84      20.55
O      19.86      22.18      20.37
C      19.27      21.84      19.28
C      21.85      19.27      19.28
C      24.42      21.84      19.28
C      21.85      24.42      19.28
O      19.86      21.51      18.19
O      22.18      19.85      18.19
