23

Zn      22.41       7.83       0.52
Zn      23.95      10.67       0.73
Zn      25.60       7.93       0.69
Zn      24.14       8.90      -1.94
C      21.33      10.15       2.01
C      26.47      10.32       2.25
C      24.02       5.83       2.01
C      26.72       7.49      -2.00
C      21.63       7.33      -2.30
C      24.01      11.85      -1.99
O      24.01       8.84       0.01
O      21.23       8.93       1.65
O      25.47      11.04       1.90
O      25.16       6.36       1.77
O      22.28      10.96       1.74
O      22.88       6.25       1.61
O      26.66       9.10       1.86
O      26.80       7.31      -0.73
O      22.64       7.97      -2.80
O      25.79       8.09      -2.63
O      21.41       7.21      -1.05
O      23.94      12.00      -0.73
O      24.09      10.74      -2.63
