54

Cd       6.25       7.82       3.77
Cd      11.03       9.16       4.89
Cd       1.47       7.52       5.49
C       6.93       9.07       6.58
C      11.71       6.10       4.56
C       2.15       9.34       3.01
C       5.85      10.67       5.07
C      10.63       6.61       6.70
C       1.07       7.23       2.38
C       8.26       8.94       1.43
C      13.04      10.63       7.03
C       3.48       4.93       5.69
C       6.50       7.64       0.66
C      11.28      11.95       6.29
C       1.72       4.92       7.20
C       6.43       5.07       3.53
C      11.21      10.75       2.63
C       1.65       8.69       7.99
C       6.68       3.59       3.34
C      11.46      11.65       1.44
C       1.90       9.27       9.37
C       8.29       9.09       5.86
C      13.07       6.72       4.94
C       3.51       8.70       3.35
N       5.87       9.28       5.60
N      10.65       6.85       5.24
N       1.09       8.37       3.31
N       7.21       8.14       1.69
N      11.99      10.81       6.21
N       2.43       5.56       6.25
O       8.35       8.68       4.65
O      13.13       7.97       5.19
O       3.57       7.86       4.31
O       9.29       9.48       6.52
H       7.02       3.42       2.30
O      -0.27       5.95       4.95
O       4.51       9.08       2.68
H      11.80      12.63       1.81
O       5.48       5.62       2.88
H       2.24       8.45      10.03
H       5.75       3.03       3.46
O      10.27      11.03       3.43
O       0.70       7.86       7.84
H      10.53      11.83       0.89
O       7.19       5.73       4.33
H       0.97       9.65       9.80
H       7.45       3.21       4.03
O      11.97       9.72       2.80
O       2.41       9.05       7.02
H      12.23      11.25       0.76
H       2.67      10.05       9.36
H       4.95       9.03       5.97
H       9.73       6.65       4.84
H       0.17       8.83       3.34
