9

Zn       9.26      17.33      18.44
C       6.88      18.44      17.00
C       6.81      16.25      19.90
Cl      10.86      15.97      17.69
C       8.84      15.55      20.78
N       8.15      16.22      19.83
Cl       9.49      19.35      19.31
N       7.81      17.46      16.95
C       7.66      16.46      16.07
