23

Zn      18.58      17.93      30.49
Zn      16.58      20.50      30.78
Zn      19.77      20.85      30.53
Zn      18.58      19.66      33.18
C      16.00      18.16      29.07
C      17.76      22.74      29.36
C      21.07      18.61      29.13
C      21.08      21.17      33.12
C      18.40      16.71      33.16
C      16.02      21.01      33.63
O      18.33      19.73      31.24
O      17.17      17.67      29.14
O      16.68      22.21      29.77
O      20.89      19.86      29.26
O      15.57      19.19      29.70
O      20.34      17.69      29.63
O      18.95      22.30      29.53
O      20.90      21.60      31.94
O      18.38      17.81      33.82
O      20.35      20.32      33.73
O      18.44      16.56      31.90
O      15.56      20.86      32.45
O      17.21      20.80      34.01
