20

Zn       9.24       5.60      11.20
Zn       6.49       5.29      12.00
C       7.44       8.02      11.73
C       8.36       2.89      11.42
C      13.48       5.45      11.55
C      12.02       5.35      11.55
C       7.12       5.49       9.09
C       8.56       5.40      14.14
C      11.73       7.05       9.87
C      13.79       4.02      13.46
N      14.28       4.87      12.37
N      11.23       6.03      10.81
O       8.56       7.50      11.42
O       7.22       3.41      11.63
O       6.37       7.37      12.02
O       9.46       3.54      11.26
O       8.36       5.42       9.35
O       7.31       5.34      13.87
O       6.17       5.49       9.94
O       9.50       5.50      13.29
