14

C      16.11       4.85      27.47
Cu      13.34       5.05      27.15
Cu      14.48       3.90      25.32
O      15.05       5.24      28.06
O      14.68       5.61      24.41
C      13.65       2.23      27.41
O      13.13       3.25      27.97
C      11.67       4.22      25.07
O      12.69       3.69      24.50
C      14.29       6.67      25.01
O      16.16       4.27      26.33
O      13.71       6.72      26.15
O      14.27       2.22      26.28
O      11.66       4.83      26.19
