20

Zn       3.12       4.29       5.59
Zn       0.88       3.19       4.28
H       5.32       3.84       6.59
H       5.56       5.07       5.71
H      -0.50       2.76       2.24
H      -1.53       3.28       3.33
C       3.03       4.28       2.51
C       1.00       3.10       7.25
C       3.07       1.38       4.84
C       1.03       6.17       4.89
O       3.79       4.24       3.55
O       1.79       4.02       2.53
O       1.99       3.90       7.23
O       0.32       2.73       6.22
O       3.59       2.28       5.57
O       2.01       1.53       4.13
O       2.27       6.09       5.15
O       0.27       5.15       4.67
O       4.92       4.71       6.39
O      -0.75       2.65       3.18
