23

Zn       7.78       9.16      15.61
Zn       7.67      10.95      18.27
Zn       9.31      12.01      15.79
Zn       6.11      11.85      15.60
O       7.72      10.99      16.31
O       7.83       7.83      17.06
C       7.72       8.00      18.33
O      10.53      10.87      14.76
C       7.69      13.99      14.32
C      10.39       9.68      14.33
C       5.26       9.45      14.04
O       9.40       8.89      14.53
O       9.24      11.80      19.08
O       7.61       9.11      18.95
O       6.23       8.73      14.50
O       6.07      11.87      18.95
C       5.06      12.33      18.32
O      10.29      12.74      17.32
O       8.84      13.54      14.64
O       5.14      10.70      14.36
O       6.55      13.50      14.62
O       4.88      12.37      17.05
C      10.18      12.53      18.59
