20

Zn       3.60       4.55       6.59
Zn       3.49       1.79       5.80
C       3.66       3.86       3.66
C       3.43       2.48       8.73
C       3.28      -1.01       6.85
C       3.80       7.35       5.54
C       4.83      -0.84       5.12
C       2.25       7.17       7.27
C       6.12       2.92       6.23
C       0.96       3.42       6.16
N       3.34       6.70       6.65
N       3.75      -0.37       5.74
O       3.62       4.78       4.54
O       3.47       1.55       7.85
O       3.63       2.61       3.92
O       3.46       3.73       8.48
O       5.53       3.98       6.60
O       1.56       2.36       5.79
O       5.57       1.82       5.89
O       1.52       4.51       6.50
