14

Zn      23.75      11.71      11.71
O      25.79      11.81      11.81
Zn      23.75      13.53      13.53
C      23.75      14.45      10.79
C      21.15      12.62      12.62
C      26.35      12.62      12.62
C      23.75      10.79      14.45
O      23.75      13.23      10.40
O      23.75      12.01      14.84
O      23.75      14.84      12.01
O      23.75      10.40      13.23
O      21.71      11.81      11.81
O      21.71      13.43      13.43
O      25.79      13.43      13.43
