20

Zn       7.75       8.74       8.90
Zn      10.56       8.82       8.77
C       9.26       8.76      11.45
C       9.26       6.15       8.84
C       9.05       8.80       6.23
C       9.04      11.41       8.83
C      13.34       8.11       9.48
C      13.22       9.77       7.87
C       4.97       9.45       8.19
C       5.09       7.79       9.80
N      12.60       8.92       8.70
N       5.71       8.64       8.97
O       8.10       8.73      10.92
O      10.37       8.79      10.81
O      10.38       6.75       8.79
O       8.12       6.70       8.89
O      10.21       8.82       6.76
O       7.94       8.78       6.86
O       7.92      10.81       8.88
O      10.19      10.86       8.78
