78

Zn       7.17      17.25      30.92
Zn       2.22      20.48      18.35
Zn       9.60      17.65      25.65
Zn       4.65      20.08      23.63
H       6.54      19.81      30.39
H       1.60      17.92      18.89
H       5.18      19.38      31.08
H       0.23      18.35      18.20
H       9.11      15.74      32.99
H       4.16      21.99      16.29
H       9.71      13.34      33.51
H       4.76      24.39      15.76
H       8.49      11.52      32.30
H       3.54      26.21      16.97
H       6.74      12.13      30.64
H       1.79      25.60      18.64
H       5.38      12.80      29.23
H       0.43      24.93      20.04
H       3.69      13.74      27.67
H      -1.26      23.99      21.60
H       3.49      16.20      27.42
H      -1.46      21.53      21.86
H       4.99      17.68      28.85
H       0.04      20.06      20.42
C       8.61      14.91      32.49
C       3.66      22.83      16.78
C       8.93      13.58      32.79
C       3.99      24.15      16.49
C       8.25      12.57      32.11
C       3.30      25.16      17.17
C       7.28      12.91      31.17
C       2.33      24.82      18.10
C       7.02      14.27      30.92
C       2.07      23.46      18.35
C       6.02      14.74      29.93
C       1.07      22.99      19.34
C       5.25      13.87      29.15
C       0.30      23.86      20.12
C       4.32      14.40      28.26
C      -0.63      23.33      21.01
C       4.21      15.78      28.12
C      -0.74      21.95      21.15
C       5.02      16.59      28.91
C       0.07      21.14      20.36
C       9.93      18.25      29.81
C       4.98      19.48      19.46
C       7.14      18.08      33.70
C       2.19      19.65      15.58
C      10.52      18.31      28.53
C       5.58      19.42      20.74
C      10.79      15.13      25.53
C       5.85      22.60      23.75
C      10.54      20.42      24.76
C       5.59      17.31      24.51
C      11.73      20.95      24.21
C       6.78      16.78      25.06
N       5.88      16.08      29.81
N       0.93      21.65      19.46
N       7.69      15.23      31.58
N       2.74      22.50      17.69
N       8.67      17.73      29.64
N       3.72      20.00      19.64
N       8.49      17.49      28.34
N       3.54      20.24      20.94
N       9.59      17.83      27.66
N       4.64      19.90      21.62
N      12.61      19.90      24.12
N       7.66      17.83      25.16
N      12.02      18.80      24.55
N       7.07      18.93      24.73
N      10.77      19.08      24.93
N       5.82      18.65      24.34
O       9.91      15.87      24.94
O       4.96      21.86      24.34
O       5.96      19.05      30.51
O       1.01      18.68      18.77
O       7.85      18.02      32.62
O       2.90      19.71      16.65
