30

Ni       3.08       3.46       9.02
Ni       8.08       4.69       7.41
O       2.51       2.07       7.66
O       7.51       6.08       8.77
H       1.36       4.60       7.78
H       6.36       3.55       8.65
C       5.14       4.31       6.78
C       0.14       3.84       9.65
C       2.63       4.05       6.29
C       7.63       4.10      10.14
C       2.61       2.51       6.45
C       7.61       5.64       9.98
C       8.18       6.57       5.11
C       3.18       1.58      11.32
C       9.98       6.78       6.54
C       4.98       1.37       9.89
C       3.38       5.02      11.54
C       8.38       3.13       4.89
C       4.29       6.10       9.72
C       9.30       2.05       6.71
N       8.83       6.16       6.22
N       3.83       1.99      10.21
N       3.63       5.04      10.21
N       8.63       3.12       6.21
O       4.95       3.72       7.90
O      -0.05       4.43       8.52
O       6.27       4.74       6.39
O       1.27       3.41      10.04
O       2.33       4.74       7.52
O       7.33       3.41       8.90
