23

Zn      18.14       5.13      32.14
Zn      14.94       5.04      32.02
Zn      16.64       2.30      32.02
Zn      16.44       4.08      34.68
C      16.53       7.15      30.70
C      14.13       2.64      30.48
C      19.24       2.80      30.71
C      16.54       1.13      34.73
C      18.95       5.64      34.96
C      13.84       5.48      34.72
O      16.54       4.14      32.71
O      17.67       6.70      31.06
O      13.93       3.84      30.84
O      18.28       2.00      30.99
O      15.39       6.65      30.98
O      19.35       4.03      31.06
O      15.11       1.93      30.84
O      16.62       0.97      33.46
O      17.97       5.03      35.47
O      16.46       2.24      35.37
O      19.15       5.76      33.71
O      13.73       5.62      33.45
O      14.80       4.92      35.35
