10

Al       4.17       3.39       5.87
O       5.26       2.83       4.40
O       5.26       4.94       6.12
O       5.26       2.39       7.08
O       3.07       3.94       4.40
O       3.07       1.84       6.12
O       3.07       4.39       7.08
C       6.25       3.39       3.82
C       6.25       5.16       6.89
C       6.25       1.62       6.89
