12

O       6.28      -0.98       6.74
Cu       6.18      -2.77       5.82
O       6.22      -4.66       5.17
C       6.78      -5.58       5.85
C       6.87      -0.84       7.86
O       7.98      -2.43       5.02
O       4.54      -3.22       6.87
C       4.60      -3.73       8.04
C       9.04      -2.69       5.67
C       4.61      -0.72       4.09
N       5.05      -1.99       4.09
C       4.74      -2.76       3.03
