18

Al      -3.18       5.70       8.70
Al       0.15       5.66       8.69
H      -1.50       6.88      10.03
H      -4.80       4.25       7.69
O      -3.80       7.47       9.08
O      -5.88       5.59      10.52
O      -0.34       3.79       8.82
O      -2.70       6.26       6.92
O      -2.55       3.93       8.31
C      -4.89       8.07       8.80
C      -4.78       5.26      11.08
C      -1.49       3.28       8.57
C      -1.59       6.06       6.33
O      -0.49       5.72       6.89
O      -6.01       7.52       8.54
O      -3.65       5.14      10.49
O      -1.51       6.18       9.35
O      -4.84       5.15       8.05
