18

Al       6.04       7.75      18.56
O       5.34       6.41      19.68
H       4.39       9.46      18.01
Al       2.63       7.84      18.56
O       6.57       8.72      20.13
O       8.74       9.18      19.68
H       7.80       6.13      18.01
O       3.16       6.87      20.13
O       5.51       6.68      17.00
C       4.29       6.34      20.40
C       7.69       9.25      20.40
O       2.11       8.91      17.00
O       4.35       8.63      18.50
C       4.34       6.27      16.70
C       7.75       9.31      16.70
O       7.75       6.96      18.50
O       3.26       6.46      17.35
O       6.66       9.13      17.35
