62

Zr       1.76      16.04       1.74
Zr      -1.81      16.15       1.61
Zr       1.93      18.12      -1.15
Zr      -1.63      18.20      -1.30
Zr       0.06      15.09      -1.22
Zr       0.06      19.16       1.68
H       0.04      17.06       3.66
H      -2.78      15.61      -0.98
H       0.11      20.36      -0.97
H       2.92      15.50      -0.83
H      -4.50      15.76       1.22
H      -3.97      17.34       0.01
H      -1.55      19.23      -3.76
H       0.37      19.44      -3.07
H       4.53      18.56      -0.75
H       4.09      16.97       0.49
H       1.63      14.03       3.48
H      -0.24      14.76       3.49
H       1.74      18.89      -3.77
H       4.37      16.84       2.10
H      -1.68      15.08       4.23
H      -4.23      18.82      -0.66
C       2.16      13.13       0.31
C      -2.24      18.47       3.87
C      -2.18      13.22       0.16
C       2.34      18.50       3.88
C       2.42      20.96       0.38
C      -2.03      15.88      -3.57
C      -2.20      21.02       0.35
C       2.25      15.79      -3.49
O       2.42      13.92       1.27
O       1.36      13.34      -0.67
O      -2.52      17.30       3.44
O      -1.41      19.29       3.38
O      -2.51      14.04       1.08
O      -1.33      13.40      -0.77
O       2.68      17.37       3.39
O       1.42      19.28       3.46
O       1.22      14.91       3.45
O       3.98      16.36       1.34
O      -1.30      14.80       3.38
O      -3.85      16.48       1.19
O      -0.01      15.40       0.81
O       0.03      17.10       2.69
O       2.75      20.14      -0.54
O       1.52      20.80       1.27
O      -2.28      17.06      -3.15
O      -1.23      15.03      -3.06
O      -2.54      20.21      -0.57
O      -1.28      20.87       1.22
O       2.50      16.97      -3.08
O       1.46      14.94      -2.96
O       1.42      19.37      -2.98
O       3.97      17.76      -0.77
O      -1.11      19.45      -2.92
O      -3.85      17.94      -0.86
O       0.13      19.45      -0.62
O       0.12      17.11      -1.57
O       1.52      17.95       0.87
O      -1.96      16.04      -0.68
O       2.11      15.94      -0.52
O      -1.42      18.01       0.81
