23

O      17.36      11.65       1.27
O      20.58       9.28      -2.44
O      18.24       9.59       1.66
O      18.03      13.12      -1.44
O      19.23      14.21       1.27
Zn      20.00       9.67       0.82
Zn      18.78      12.57       0.28
O      21.34       9.30       2.21
O      21.46      13.99       1.66
Zn      21.92      12.28       0.82
Zn      20.69      11.17      -1.92
O      22.67      11.12       2.21
O      22.46      11.84      -2.44
O      23.34      12.62      -0.49
C      20.35       8.24      -1.75
C      18.37      12.87      -2.64
C      17.32      10.46       1.75
C      20.35      14.60       1.75
C      22.33       9.97       2.64
C      23.38      12.38      -1.75
O      20.35      11.42      -0.00
O      20.11       8.21      -0.49
O      19.36      12.15      -2.97
