11

Zn       3.46      13.01      13.78
C       5.84      12.06      12.62
C       1.07      14.48      14.02
O       4.86      12.87      12.40
C       5.90      13.84      15.29
N       4.57      13.59      15.35
O       2.05      14.27      13.20
C       1.01      11.28      13.81
N       2.34      11.36      14.06
C       4.25      13.71      16.67
C       2.66      10.15      14.62
