18

Al       5.02       7.00       6.41
Al       8.35       7.03       6.39
O       8.87       8.08       4.88
O       5.57       5.84       7.85
O       6.68       7.81       6.35
O       4.50       8.34       7.71
O       7.79       5.66       5.17
O       4.48       8.14       4.98
O       7.85       5.95       7.90
O       5.53       5.66       5.12
H       3.33       5.39       7.02
O       8.90       8.47       7.58
H       6.66       8.77       6.49
O       3.35       6.21       6.51
C       6.67       5.25       4.75
C       3.37       8.81       8.03
C       3.36       8.45       4.46
C       6.71       5.59       8.36
