23

Zn      16.17      16.27      22.43
Zn      17.68      15.33      25.11
Zn      15.94      18.02      25.10
Zn      14.47      15.19      24.94
O      16.07      16.21      24.39
O      17.83      15.46      21.76
C      18.79      14.91      22.40
C      18.48      17.73      26.67
O      18.69      16.54      26.29
O      16.00      19.38      23.68
C      13.69      14.72      22.12
O      14.32      18.34      26.15
O      13.47      14.57      23.37
O      18.89      14.78      23.67
O      14.67      15.34      21.59
O      13.27      16.31      26.02
C      13.36      17.52      26.40
C      16.08      19.23      22.41
O      16.16      18.13      21.77
O      17.46      18.45      26.30
C      16.10      13.21      26.40
O      17.23      13.73      26.14
O      14.95      13.63      26.03
