20

Zn       5.90       7.74       9.83
Zn       5.90      10.54       9.83
C       5.90       9.14       7.22
C       5.90       9.14      12.45
C       6.65       5.01      10.71
C       5.15      13.27       8.96
C       5.14       5.01       8.96
C       6.66      13.27      10.71
C       3.27       9.14       9.81
C       8.53       9.14       9.86
N       5.90       5.69       9.83
N       5.90      12.59       9.83
O       5.89       8.00       7.80
O       5.91      10.27      11.86
O       5.90       8.01      11.86
O       5.90      10.27       7.80
O       3.83       8.00       9.81
O       7.97      10.28       9.85
O       7.96       8.00       9.86
O       3.84      10.28       9.81
