35

Zn       2.58       3.92       8.85
C       0.50       3.18       6.91
C       1.64       3.90       3.06
Zn       3.92       2.58       2.35
C       6.16       2.95       4.28
Zn       3.41       3.41       5.60
C       4.30       0.52       0.16
C       4.87       2.70      -0.45
C       4.88       4.12      -0.04
C       4.39       5.62       1.66
H       4.50       0.93       7.53
N       1.82       4.36      10.75
N       4.37       4.47       9.99
H       0.93       4.50       3.67
N       4.36       1.82       0.45
N       4.47       4.37       1.22
O       3.49       5.44       6.04
O       2.44       5.78       8.04
O       3.32       1.34       5.23
O       3.25       0.72       3.04
O       3.75       2.83       7.61
O       3.43       1.31       9.24
C       0.52       4.30      11.04
O       5.44       3.49       5.17
C       2.70       4.87      11.65
C       4.12       4.88      11.25
O       0.72       3.25       8.17
O       1.34       3.32       5.97
O       2.83       3.75       3.59
C       5.62       4.39       9.54
O       5.78       2.44       3.17
O       1.31       3.43       1.96
C       2.95       6.16       6.92
C       3.18       0.50       4.29
C       3.90       1.64       8.15
