18

Mg      -0.20       1.05      19.64
Mg       2.07      -0.42      20.74
C       0.15       0.95      22.67
Mg      -2.47      -0.63      18.92
C      -4.39      -2.99      19.14
C      -2.12       2.04      17.49
C      -2.15       0.15      21.87
C       0.12      -1.90      18.85
C       2.39       1.75      18.58
O      -3.33      -0.23      22.16
O      -1.06      -1.96      18.38
O       1.21       2.18      18.77
O      -1.75       0.18      20.64
O       0.52      -0.85      19.49
O       2.79       0.67      19.18
O       0.72       0.91      21.46
O      -3.83      -1.92      19.71
O      -1.55       1.01      18.14
