18

Al       2.49      11.86      13.28
Al       5.78      11.90      13.30
O       5.22      13.18      12.02
O       5.30      13.06      14.75
O       3.04      13.15      14.61
O       2.98      12.99      11.83
H       4.16      10.17      13.75
O       1.98      10.64      14.72
H       0.85      13.50      13.85
O       1.91      10.56      11.98
C       4.16      13.46      15.15
O       4.14      11.04      13.32
O      -0.35      10.75      11.85
C       4.11      13.43      11.44
C       0.77      10.30      11.47
O      -0.30      10.54      14.59
O       0.83      12.68      13.34
C       0.83      10.25      15.10
