14

Zn       3.77      18.48       9.21
O       3.61      19.81       7.75
O       4.48      19.87      10.53
O       5.85      19.68       7.96
Zn       6.35      18.30       9.37
O       6.70      19.66      10.75
C       4.34      16.69      11.16
C       5.50      16.51       7.52
C       4.81      20.21       7.41
C       5.57      20.23      11.11
O       3.26      17.24      10.66
O       5.50      17.02      10.70
O       6.65      16.92       8.00
O       4.40      16.98       8.00
