10

Al       4.93      17.62      10.20
O       3.88      18.29       8.74
O       3.87      16.02      10.35
O       3.87      18.53      11.51
O       5.99      17.03       8.73
O       5.97      19.21      10.45
O       5.98      16.62      11.46
C       2.94      15.81      11.18
C       2.94      19.37      11.27
C       2.93      17.68       8.16
