36

Zn       1.10      -0.77      10.63
Zn      -1.65       1.15      10.63
Zn      -1.73       1.21      13.98
Zn       1.02      -0.71      13.99
C       2.33       1.90      10.34
C      -3.62       3.54      11.10
C       0.35       3.29      14.27
C       3.95      -1.73      13.51
C      -3.61      -1.01      13.46
C      -1.66       0.14       7.66
C      -0.33      -3.30      11.16
C       0.08      -1.07      16.95
C      -3.61       3.58      13.32
C       2.19       2.06      14.36
C       3.98      -1.71      11.29
C       0.54       3.21      10.26
C       0.14      -1.16       7.71
C      -0.34      -3.35      13.37
C      -1.76       0.17      16.90
C      -3.65      -1.04      11.24
N       1.29       1.22      10.84
N      -2.87       2.51      11.53
N       0.07       2.07      13.77
N       2.72      -1.38      13.08
N      -2.53      -0.36      13.01
N      -1.11       0.25       8.88
N      -0.09      -2.06      11.61
N      -0.01      -0.51      15.74
N      -2.86       2.54      12.90
N       1.20       1.31      13.84
N       2.75      -1.36      11.71
N       0.18       2.02      10.78
N       0.00      -0.55       8.91
N      -0.08      -2.09      12.97
N      -1.15       0.25      15.70
N      -2.56      -0.36      11.64
