10

Al       3.95      29.02      25.13
O       5.00      27.43      24.95
O       5.00      29.98      23.84
O       5.00      29.67      26.60
O       2.90      28.08      23.84
O       2.90      28.37      26.60
O       2.90      30.62      24.96
C       5.94      30.81      24.10
C       5.94      29.02      27.19
C       5.94      27.24      24.10
