15

C      15.02      24.80       6.01
C      15.92      26.62       6.89
Cu      18.14      27.03       5.02
Cu      19.37      25.80       2.38
Cu      16.80      24.47       3.70
N      20.15      27.30       3.11
N      19.64      27.81       4.28
N      16.64      26.28       5.80
N      16.08      25.16       5.25
N      17.50      23.74       2.16
N      18.63      24.30       1.61
C      18.97      23.56       0.53
C      17.14      22.68       1.41
C      20.38      28.87       4.64
C      21.20      28.06       2.75
