36

Ca      24.63       8.26      14.07
Ca      17.59       5.81      14.07
Cd      21.11       7.04      13.59
Cd      28.14       7.04      14.55
O      27.72       5.38      12.99
O      20.69       8.69      15.15
O      21.53       5.38      15.15
O      28.57       8.69      12.99
H      23.40      10.25      15.97
H      16.37       3.82      12.17
O      25.89       6.64      13.07
O      18.86       7.43      15.07
O      23.36       6.64      15.07
O      16.32       7.43      13.07
H      18.81       3.82      15.97
H      25.85      10.25      12.17
H      22.20       9.55      15.24
H      15.17       4.52      12.90
H      20.02       4.52      15.24
H      27.05       9.55      12.90
O      23.14       9.85      15.12
O      16.11       4.22      13.02
O      19.08       4.22      15.12
O      26.11       9.85      13.02
C      22.23       8.73      11.60
C      29.26       5.34      16.54
C      19.99       5.34      11.60
C      27.02       8.73      16.54
C      26.56       5.69      12.55
C      19.52       8.38      15.59
C      22.70       5.69      15.59
C      29.73       8.38      12.55
O      22.88       8.09      12.52
O      29.92       5.98      15.62
O      19.34       5.98      12.52
O      26.37       8.09      15.62
