24

Al       1.61       1.04      27.33
Al       3.09       3.89      27.34
Al       4.80       1.41      27.35
C       1.25       3.23      29.34
C       5.26       3.63      29.14
C       3.60      -0.18      29.22
C       1.10       3.44      25.51
C       5.13       3.40      25.38
C       3.59      -0.05      25.35
O       2.50      -0.15      28.59
O       1.01       2.07      28.89
O       1.85       4.18      28.71
O       4.37       4.41      28.63
O       5.68       2.55      28.61
O       4.75       0.21      28.76
O       2.42       0.23      25.73
O       0.82       2.34      26.06
O       1.85       4.35      26.04
O       4.36       4.24      25.96
O       5.62       2.36      25.95
O       4.65       0.02      26.09
O       3.19       2.13      27.36
H      -0.48       0.21      26.67
O       0.21      -0.01      27.31
