18

H       3.24       0.21       1.65
Al       1.58      -0.05      -0.07
Al       4.91      -0.04      -0.07
C       3.20       2.00      -1.38
H      -0.08       0.80      -1.59
C       3.27      -1.59      -1.90
C      -0.04      -2.08       1.17
C      -0.12       1.46       1.84
O       4.41      -1.31      -1.39
O       2.08       1.61      -0.92
O       1.00       0.97       1.50
O       2.15      -1.08      -1.59
O       1.09      -1.68       0.77
O       4.32       1.42      -1.24
O       3.25      -0.14       0.75
O       5.50      -1.50       1.01
O       5.39       1.23       1.33
O      -0.08       0.15      -0.86
