18

Al       6.02       5.55       9.32
Al       2.67       5.50       9.26
C       4.34       7.43       7.79
C       4.32       6.79      11.36
C       7.69       3.62      10.79
C       7.67       4.26       7.22
O       3.20       6.49      10.83
O       6.55       4.56       7.76
O       5.48       7.04       8.22
O       8.82       4.01      10.36
O       5.48       6.53      10.89
O       8.82       4.53       7.70
O       6.56       4.11      10.48
O       3.21       6.94       8.11
O       4.36       4.74       9.16
O       7.70       6.32       9.43
H       4.39       3.80       8.93
H       7.74       7.26       9.66
