20

Zn       3.91       3.23      11.51
O       3.79       2.04      13.23
Zn       1.11       2.62      11.93
O       1.63       1.44      13.57
O       1.36       4.27      13.13
O       3.54       4.80      12.78
C       2.43       4.91      13.39
O       3.47       4.31       9.83
C       2.23       4.34       9.54
O       1.29       3.80      10.22
O       1.47       1.01      10.70
O       3.67       1.50      10.39
C       2.60       0.85      10.14
C       6.58       3.38      12.76
C       6.69       2.85      10.50
C       2.87       1.43      13.86
C      -1.59       3.51      12.73
C      -1.64       1.79      11.17
N       5.96       3.19      11.58
N      -0.93       2.62      11.97
