36

Zn       3.31      21.13      16.41
N       5.02      20.64      17.41
N       2.17      20.90      18.03
Zn       0.59      20.01      14.90
N       2.17      22.46      15.37
N       2.40      19.41      14.26
N       1.01      21.99      14.78
Zn       3.35      18.23      17.96
N      -0.31      17.24      14.64
N       2.34      16.67      18.86
N       3.52      19.92      14.84
N      -0.33      19.85      16.66
N       5.03      19.41      18.02
N       2.16      19.69      18.66
N      -0.43      18.47      14.03
N      -0.36      18.63      17.25
N       3.61      17.29      16.23
N       1.18      16.24      18.27
Zn       0.67      17.10      16.44
N       2.50      16.64      15.73
C       2.25      23.77      15.11
C       2.93      15.63      14.98
C       0.56      15.41      19.12
C       4.51      19.91      13.94
C      -1.33      20.60      17.14
C       6.23      19.24      18.60
C       1.91      19.90      19.97
C      -0.86      18.28      12.77
C      -1.38      18.60      18.12
C       6.21      21.23      17.63
C       1.92      21.86      18.94
C      -0.65      16.30      13.74
C       2.44      16.10      20.07
C       2.69      19.07      12.99
C       0.39      23.02      14.18
C       4.71      16.68      15.77
