23

Zn      19.91       9.62       0.80
Zn      20.62      11.12      -1.91
Zn      18.70      12.52       0.30
Zn      21.83      12.25       0.80
O      20.26      11.38      -0.00
O      20.01       8.16      -0.50
O      19.28      12.10      -2.96
O      17.28      11.60       1.29
O      20.51       9.24      -2.45
O      18.15       9.53       1.66
O      17.95      13.07      -1.43
O      19.14      14.16       1.29
O      22.58      11.08       2.20
O      21.38      13.96       1.66
O      21.25       9.26       2.20
O      22.38      11.79      -2.45
O      23.25      12.59      -0.50
C      20.26       8.19      -1.75
C      18.29      12.82      -2.63
C      17.23      10.41       1.75
C      20.26      14.57       1.75
C      22.24       9.93       2.63
C      23.30      12.34      -1.75
