54

Zr      20.83       6.54      14.13
Zr      17.29       4.49      17.02
Zr      20.83       4.48      17.02
Zr      17.30       6.53      14.13
Zr      19.06       3.47      14.13
Zr      19.06       7.55      17.02
H      21.84       3.90      14.44
H      16.28       3.91      14.44
H      19.06       5.51      18.98
H      19.06       8.72      14.44
O      21.51       5.40      12.34
O      16.61       2.42      16.55
O      16.48       5.71      18.70
O      21.64       8.53      14.72
O      22.98       4.93      16.55
O      17.95       7.67      12.32
O      15.14       6.24      14.70
O      20.17       3.16      18.70
O      20.38       1.77      14.72
O      20.54       7.65      18.70
O      17.59       9.17      16.55
O      17.74       3.46      12.33
O      21.59       5.63      18.77
O      16.53       8.56      14.62
O      16.51       5.38      12.39
O      21.61       2.46      16.51
O      22.99       6.21      14.66
O      17.90       3.26      18.78
O      15.14       4.88      16.54
O      20.22       7.78      12.39
O      20.43       9.24      16.51
O      20.45       3.39      12.39
O      17.68       1.80      14.64
O      17.69       7.63      18.78
O      19.06       7.81      14.76
O      19.06       5.51      18.01
O      17.06       4.37      14.77
O      21.06       4.37      14.77
O      19.06       3.82      16.17
O      19.06       5.51      13.78
C      21.28       4.22      11.90
O      20.53       6.36      16.18
O      17.59       6.36      16.17
C      21.31       9.40      15.60
C      23.56       5.58      15.61
C      19.08       8.08      11.89
C      16.84       1.61      15.58
C      19.04       2.89      19.22
C      21.30       1.61      15.60
C      21.34       6.80      19.22
C      16.81       6.83      19.23
C      14.56       5.57      15.63
C      16.78       9.38      15.58
C      16.83       4.24      11.89
