24

Al       8.72       5.62      13.64
Al      11.90       5.80      13.22
Al      10.33       8.36      13.25
O      11.63       4.43      12.01
O       8.23       6.95      15.01
O       9.65       4.69      15.12
O      12.62       6.72      11.69
O      11.88       4.59      14.64
O      11.35       8.62      11.64
O      10.34       6.60      13.36
O       8.88       8.75      12.17
O      11.87       8.82      14.23
O       9.39       8.89      14.77
O       7.24       4.73      13.93
H       6.90       4.23      13.18
C      10.44       4.08      11.64
C      12.14       7.76      11.12
C       8.13       7.82      11.66
C      10.85       4.43      15.40
C      12.69       8.01      14.78
C       8.67       8.06      15.43
O       7.96       6.67      12.14
O       9.37       4.34      12.27
O      13.00       6.85      14.31
