30

C       8.90       4.65       3.94
In       7.37       5.18       6.68
O       8.02       3.40       7.82
C      10.23       4.04       5.75
C       9.32       7.27       7.26
C       5.46       3.14       5.57
C       8.51       3.11       8.96
H       9.62       0.10       8.23
C       8.94       0.93       8.02
H       9.21       1.43       7.09
C       9.48       1.39      10.43
H       7.93       0.53       7.92
C       8.51       4.06      10.12
H      10.24       0.61      10.26
N       6.95       5.93       4.51
H       8.65       0.94      11.00
N       9.08       4.52       5.27
H       9.93       2.19      11.01
N       5.52       6.61       8.40
H       7.97       3.62      10.97
N       9.02       1.88       9.14
H       8.03       5.00       9.83
H       9.54       4.26      10.45
O       8.85       6.22       7.85
C       5.96       6.77       4.22
O       5.53       4.11       6.44
O       6.03       5.59       8.96
O       5.92       6.90       7.19
C       7.70       5.40       3.51
O       4.66       7.33       8.95
