20

C      22.75      23.35      14.87
C      28.17      24.40      14.50
Zn      24.01      21.72      17.10
Zn      25.56      23.45      15.52
C      26.38      25.13      13.21
C      25.18      20.49      14.82
C      24.29      24.59      17.94
C      22.75      20.93      19.65
C      21.82      19.81      17.85
N      26.84      24.46      14.28
N      22.73      20.67      18.33
O      27.00      22.94      16.92
O      25.84      21.29      17.95
O      23.86      23.75      14.38
O      22.61      22.63      15.91
O      24.27      20.26      15.68
O      25.83      21.58      14.69
O      24.86      24.88      16.84
O      23.99      23.41      18.33
C      26.90      21.95      17.71
