20

Fe       0.31      12.54       7.24
Fe      -4.48      12.54       7.24
P      -2.04      11.16       5.30
P      -2.04      14.92       7.01
P      -2.04      11.56       9.41
P       2.75      14.03       5.39
P       2.75      13.40       9.46
P       2.75      10.19       6.88
O      -0.82      11.98       5.67
O      -0.82      14.18       7.54
O      -0.82      11.46       8.51
O      -3.38      11.56       5.89
O      -3.38      14.20       7.07
O      -3.38      11.86       8.76
O       3.98      13.20       5.72
O       3.98      13.53       8.57
O       3.98      10.90       7.44
O       1.41      13.61       5.97
O       1.41      13.12       8.80
O       1.41      10.90       6.96
