23

Zn      17.26       8.77       8.52
Zn      17.20      10.65       5.99
Zn      18.91      11.59       8.52
Zn      15.67      11.53       8.63
O      17.56       8.88       5.24
O      17.10       7.52       7.01
O      14.51      10.28       9.64
O      15.81       8.42       9.78
O      19.95      10.41       9.72
O      18.97       8.38       9.39
O      14.58      12.31       7.20
O      15.41      11.18       5.40
O      20.03      12.09       6.98
O      18.54      11.87       5.26
O      18.49      13.22       9.55
O      16.27      12.86       9.94
O      17.28      10.65       7.94
C      17.36       7.74       5.78
C      14.79       9.12      10.08
C      19.86       9.15       9.88
C      14.57      11.96       5.97
C      19.66      12.22       5.76
C      17.38      13.47      10.12
