9

C      -0.78      10.34       7.61
C       3.21      11.34       4.57
I       2.38      11.19       9.35
I       3.49       8.04       6.23
Zn       2.14      10.05       7.08
N       0.09       9.64       6.85
N       2.40      11.53       5.63
C       1.79      12.72       5.78
C      -0.41       8.74       5.98
