23

Zn      41.13      23.75       9.31
Zn      42.74      24.67      11.93
Zn      42.74      26.52       9.31
Zn      44.34      23.75       9.31
O      42.74      24.67       9.97
O      40.02      23.10      10.79
O      42.74      26.50      12.65
O      41.15      26.90       8.21
O      41.15      23.76      12.65
O      40.02      24.93       8.21
O      42.74      27.81      10.79
O      44.32      26.90       8.21
O      43.87      22.19       8.21
O      45.45      24.93       8.21
O      41.60      22.19       8.21
O      44.32      23.76      12.65
O      45.45      23.10      10.79
C      40.18      23.20      12.06
C      42.74      27.63      12.06
C      40.18      26.15       7.88
C      45.29      26.15       7.88
C      42.74      21.72       7.88
C      45.29      23.20      12.06
