9

C      -0.68       6.50      22.56
Zn       2.21       6.25      21.85
C      -0.37       4.88      20.93
C       3.17       7.63      19.34
N       2.40       7.78      20.44
C       1.82       8.98      20.67
N       0.15       5.81      21.75
I       2.60       7.38      24.11
I       3.50       4.25      20.91
