18

Al      -3.06       4.64       6.11
Al       0.25       4.67       6.16
H      -1.46       5.32       7.74
H      -4.80       3.09       5.39
O      -3.54       6.45       5.79
O      -5.90       4.32       8.01
O      -0.33       2.83       5.94
O      -2.44       4.52       4.31
O      -2.57       2.78       6.32
C      -4.65       7.04       5.96
C      -4.75       4.48       8.55
C      -1.45       2.23       6.04
C      -1.35       4.89       3.75
O      -0.25       5.11       4.35
O      -5.74       6.47       6.28
O      -3.66       4.75       7.94
O      -1.41       5.20       6.78
O      -4.74       4.05       5.56
