20

Zn       6.81       5.63      14.10
Zn       6.50       8.50      14.37
C       6.68       6.76      16.82
C       4.07       6.76      14.21
C       6.63       7.39      11.65
C       9.24       7.37      14.25
C       7.65       2.76      13.26
C       5.68      11.38      15.20
C       7.33      11.18      13.61
C       6.02       2.95      14.88
N       6.88       3.55      14.02
N       6.45      10.59      14.45
O       6.74       5.67      16.18
O       6.62       7.92      16.30
O       4.54       7.94      14.22
O       4.73       5.67      14.18
O       6.59       8.48      12.29
O       6.67       6.21      12.14
O       8.76       6.20      14.19
O       8.59       8.46      14.28
