13

C      13.31      -3.66       6.40
Zn      16.11      -5.17       6.52
O      15.76      -4.69       9.99
Zn      14.70      -4.03       8.54
O      14.40      -4.11       5.94
O      17.27      -3.67       6.09
C      17.04      -2.70       6.91
O      15.26      -6.88       6.17
O      17.02      -5.56       8.31
O      16.17      -2.67       7.83
C      14.29      -6.96       7.03
O      13.13      -3.38       7.66
C      16.78      -5.35       9.54
