24

Al       7.76       4.55      14.27
Al       9.43       7.31      14.23
Al      10.97       4.74      14.22
C       9.64       3.19      12.33
O       8.56       3.40      15.63
O      10.75       7.66      12.91
O      11.89       5.69      12.86
O      10.77       3.42      12.93
O       9.40       5.55      14.23
O       7.19       5.71      15.74
O       8.17       7.75      15.52
O      10.71       7.68      15.57
O      11.92       5.76      15.51
O      10.84       3.48      15.58
O       8.50       3.50      12.76
O       7.09       5.81      12.86
O       8.23       7.78      12.88
O       6.26       3.65      14.31
H       5.85       3.48      13.45
C       7.47       6.87      16.15
C      11.56       6.86      16.06
C       9.70       3.18      16.12
C       7.42       6.92      12.37
C      11.54       6.81      12.35
