23

Zn       6.04       5.85       8.02
Zn       3.59       7.81       7.81
Zn       3.79       5.40       5.69
Zn       5.98       7.76       5.57
C       4.60      10.18       6.33
C       5.38       3.21       6.80
C       8.49       7.18       6.97
C       4.47       6.78      10.34
C       5.16       6.15       3.25
C       1.26       6.65       6.41
O       4.81       6.71       6.72
O       7.90       6.46       7.82
O       3.51       7.35       9.68
O       4.05       5.78       3.74
O       6.12       6.75       3.86
O       1.78       7.64       7.01
O       4.10       9.68       7.38
O       7.90       7.90       6.04
O       4.38       3.57       6.09
O       5.50       6.23       9.83
O       5.30       9.60       5.44
O       1.84       5.62       5.94
O       6.12       3.96       7.52
