14

C      -2.01       7.73       2.11
O      -3.06       8.35       2.53
O      -1.57       7.78       0.92
O      -1.06       9.82      -1.10
Zn      -3.81       9.28       0.98
Zn      -2.27       8.28      -0.99
C      -4.04       6.44      -0.42
O      -4.48       7.44       0.23
C      -1.31      10.67      -0.17
O      -3.00       6.46      -1.18
O      -5.08      10.22      -0.18
C      -4.82       9.99      -1.41
O      -3.84       9.33      -1.86
O      -2.25      10.60       0.68
