18

Al       5.27       9.83      19.13
C       3.60       8.03      17.52
Al       1.93       9.82      19.14
C       6.95      11.62      20.74
H       6.94       8.07      19.32
O       2.46       8.43      17.92
O       5.81      11.22      20.35
O       4.74       8.72      20.62
O       8.09      10.93      17.65
O       4.74       8.46      17.88
O       8.08      11.19      20.38
O       5.81      10.93      17.65
O       2.46       8.72      20.62
O       3.60      10.62      19.06
H       3.59      11.58      18.95
O       6.94       9.03      19.21
C       3.60       8.41      21.09
C       6.95      11.24      17.18
