15

Cu      11.79      19.55       9.73
Cu      11.79      18.48      12.72
Cu      11.78      21.62      12.14
N      11.79      17.27      11.33
N      11.80      17.74      10.03
N      11.78      21.36       9.37
N      11.77      22.26      10.41
N      11.77      21.02      13.88
C      11.79      16.68       9.20
N      11.78      19.67      14.13
C      11.79      15.92      11.29
C      11.76      23.50       9.89
C      11.77      22.04       8.21
C      11.77      19.48      15.47
C      11.76      21.67      15.06
