14

Zn       3.92       5.48       7.64
Zn       2.20       3.40       7.69
O       5.11       4.85       6.24
O       4.58       3.90       8.88
O       3.04       2.24       9.02
O       3.27       6.58       9.13
O       1.84       4.81       9.22
O       2.32       5.85       6.37
O       0.81       4.15       6.55
C       4.69       3.70       5.82
C       4.16       2.79       9.34
C       2.30       5.91       9.66
C       1.22       5.29       6.08
O       3.60       3.15       6.16
