19

Cu       4.68       5.30       9.18
H       4.89       9.72       8.28
H       4.48       6.20       4.76
H       5.16       9.31       6.61
H       4.20       7.87       5.17
H       3.50       7.95      10.57
H       5.86       3.92       6.53
C       4.64       7.72       7.81
C       4.72       6.67       6.76
C       3.26       4.34      11.52
C       6.10       2.96      10.14
N       4.27       7.21       8.97
N       5.09       5.51       7.27
N       4.95       8.99       7.56
N       4.41       6.93       5.50
O       4.31       8.14      10.03
O       5.05       4.46       6.34
O       4.08       5.23      11.05
O       5.28       3.43       9.25
