15

Cu      15.85      16.01      18.24
Cu      18.15      16.01      16.06
Cu      15.91      18.31      16.07
N      18.17      14.71      17.37
C      17.47      13.80      19.25
N      17.16      14.71      18.31
C      19.09      13.81      17.74
C      13.74      19.31      17.76
N      14.59      17.35      18.32
C      13.69      17.67      19.27
C      19.14      17.68      13.88
N      14.62      18.36      17.39
C      17.60      19.28      13.89
N      17.25      18.34      14.80
N      18.21      17.36      14.79
