24

Al      12.29       7.96      12.99
Al      10.78       5.15      13.31
Al       9.11       7.65      13.34
C       8.45       5.42      11.71
C      10.10       9.10      11.21
O      11.63       9.08      14.47
O       9.37       4.65      12.16
O       8.07       6.52      12.25
O       9.04       8.82      11.89
O      10.70       6.91      13.21
O      13.13       6.85      14.34
O      12.11       4.83      14.56
O       9.61       4.80      14.79
O       8.41       6.74      14.87
O       9.35       9.05      14.52
O      11.29       8.99      11.58
O      12.75       6.73      11.47
O      11.89       4.66      11.91
O      13.73       8.93      12.79
H      13.90       9.26      11.89
C      12.89       5.78      14.97
C       8.88       5.67      15.38
C      10.52       9.35      15.00
C      12.48       5.54      11.16
