14

O      17.46      26.48       1.58
Zn      19.87      27.73      -0.00
O      19.69      29.31      -1.26
O      19.69      28.99       1.58
O      19.69      26.15       1.26
O      19.69      26.47      -1.58
O      17.46      29.31       1.26
Zn      17.28      27.73       0.00
C      18.57      29.56      -1.82
C      18.57      25.91      -1.82
C      18.57      25.91       1.82
C      18.57      29.56       1.82
O      17.46      28.99      -1.58
O      17.46      26.15      -1.26
