27

Zn      -1.77      -1.12      10.78
O      -3.74      -0.92      11.07
O      -1.01      -2.94      10.68
O      -1.57      -2.71       8.52
O       1.91      -6.74      11.80
O      -1.67       0.29       9.41
C      -4.76      -1.70      10.94
C      -1.07      -3.40       9.47
C      -0.53      -4.74       9.19
H      -0.63      -5.07       8.16
C       0.02      -5.53      10.13
H       0.13      -5.14      11.14
C       0.52      -6.88       9.86
C       1.47      -7.48      10.72
C       1.96      -8.76      10.48
C       0.07      -7.64       8.76
H      -0.70      -7.22       8.11
C       0.56      -8.92       8.51
H       2.68      -9.20      11.16
C       1.50      -9.48       9.37
H       2.61      -7.23      12.25
H       1.89     -10.48       9.20
H       0.18      -9.47       7.65
C      -0.48       0.60       9.03
C      -1.93      -0.14      13.57
C       0.21      -0.79      12.99
N      -1.07      -0.59      12.63
