15

C      23.04      14.17      25.11
Cu      24.01      11.04      27.32
Cu      26.58       9.73      26.00
C      22.21      13.33      26.98
Cu      25.28      12.32      24.71
C      28.38      10.09      23.72
N      23.26      12.57      26.61
N      23.78      13.09      25.46
N      26.78      11.59      23.94
N      27.32      10.45      24.47
N      25.87       8.99      27.53
N      24.73       9.52      28.07
C      27.52      11.94      22.86
C      24.39       8.79      29.15
C      26.23       7.92      28.28
