20

O       3.23      13.81       8.16
Co       3.73      14.84       9.87
O       2.48      14.65      12.52
Co       1.98      13.63      10.81
O       1.58      12.60       9.12
O       4.13      15.86      11.57
O       2.38      16.27       9.36
O       3.33      12.20      11.32
O       0.70      15.04      10.24
O       5.01      13.42      10.44
C       2.31      12.93       8.13
C       3.40      15.53      12.56
C       1.14      16.03       9.57
C       4.57      12.43      11.11
C       4.95      16.51       7.46
C       0.76      11.95      13.23
N       5.16      15.88       8.61
N       0.55      12.58      12.08
N       6.44      16.12       9.02
N      -0.73      12.35      11.66
