23

O       6.44      21.20      17.29
Zn       4.03      21.18      21.18
O       5.69      16.86      20.24
Zn       6.61      21.11      19.27
O       8.35      20.24      19.53
Zn       4.11      19.27      18.60
O       4.97      19.53      16.86
Zn       5.94      18.60      21.11
C       4.88      16.51      19.31
C       8.70      19.31      20.33
C       5.90      20.33      16.51
O       4.35      23.07      20.74
O       2.14      20.74      20.86
O       4.47      20.86      23.07
O       6.42      22.98      19.78
C       5.35      23.59      20.14
C       1.62      20.14      19.86
O       2.23      19.78      18.80
C       5.08      19.86      23.59
O       5.43      18.80      22.98
O       5.17      20.04      20.04
O       4.01      17.29      18.77
O       7.92      18.77      21.20
