23

Zn      16.17      16.34      22.45
Zn      17.71      15.43      25.10
Zn      15.92      18.12      25.08
Zn      14.49      15.26      24.96
C      18.77      14.97      22.38
C      18.46      17.82      26.64
O      16.08      16.28      24.41
O      17.80      15.51      21.76
O      18.74      16.62      26.29
C      16.13      13.28      26.40
C      16.06      19.29      22.39
C      13.34      17.59      26.39
O      17.44      18.48      26.28
O      14.28      18.42      26.11
O      13.45      14.60      23.42
O      13.27      16.36      26.03
O      14.64      15.40      21.65
C      13.67      14.77      22.17
O      15.97      19.47      23.66
O      18.91      14.86      23.65
O      16.14      18.18      21.77
O      14.97      13.69      26.03
O      17.26      13.81      26.13
