14

Zn      -0.01      20.52       0.00
C       2.49      22.45      -0.08
Zn      -0.01      23.33      -0.00
O      -1.90      21.34       0.05
O      -1.96      23.61       0.03
O       1.94      23.61      -0.04
O       1.88      21.34      -0.05
O       0.05      20.29       1.93
O      -0.07      20.29      -1.93
C       0.02      21.44       2.50
C      -0.04      21.43      -2.50
O       0.01      22.58       1.95
O      -0.03      22.57      -1.95
C      -2.51      22.45       0.07
