12

O       2.12       7.51       1.46
C       1.19       5.24       5.19
Zn       2.22       7.40       3.41
C       2.87       4.45       4.05
N       0.56       8.41       3.86
N       3.86       8.29       4.18
C       3.10       6.90       0.85
C       0.14       9.01       4.99
C      -0.33       8.81       2.87
N       2.09       5.57       4.27
C       4.05       8.82       5.39
C       5.07       8.38       3.52
