14

Zn       9.12      15.15      19.54
O       6.68      15.41      17.54
O       8.91      14.94      17.52
O       8.98      17.14      19.34
Zn       6.53      15.19      19.57
O       8.95      15.40      21.57
O       8.94      13.18      19.75
O       6.74      17.17      19.76
O       6.71      14.99      21.60
O       6.69      13.21      19.38
C       7.79      15.19      16.96
C       7.87      17.73      19.55
C       7.83      15.21      22.15
C       7.81      12.61      19.56
