13

N       5.99       6.02      12.12
C       5.92       8.08      15.07
C       4.87       9.96      10.25
C       1.97       7.73      11.33
Zn       4.87       7.66      12.27
C       7.28       5.87      12.51
C       5.70       4.89      11.37
N       2.96       7.11      12.06
N       5.34       8.77      10.67
C       4.95       9.87      14.31
N       5.25       8.60      13.98
C       2.41       5.96      12.51
C       6.16       8.32       9.65
