20

Zn       5.47       9.66       8.86
Zn       5.44       6.91       8.79
C       5.64       8.37       6.21
C       8.05       8.22       8.81
C       6.42      12.36       8.11
C       6.46       4.19       8.16
C       4.67      12.43       9.64
C       4.52       4.16       9.44
C       5.67       8.31      11.44
C       2.85       8.26       8.85
N       5.52      11.71       8.88
N       5.47       4.85       8.79
O       5.76       9.49       6.80
O       5.27       7.27       6.76
O       7.46       9.31       9.07
O       7.47       7.12       8.52
O       5.33       9.43      10.93
O       5.71       7.19      10.82
O       3.47       9.36       8.67
O       3.40       7.12       9.03
