16

Zn       4.17      20.33      11.74
O       5.36      18.74      11.00
H       4.82      21.15      14.02
H       4.82      21.90       9.89
O       2.82      21.86      12.48
O       2.82      20.22      10.05
O       2.82      18.92      12.69
H       4.82      17.94      11.31
O       5.36      21.77      10.73
H       6.22      20.93      13.25
H       6.22      21.35      10.47
H       6.22      18.72      11.50
C       2.81      22.33      13.68
C       2.81      21.01       9.04
C       2.81      17.65      12.50
O       5.36      20.49      13.49
