23

Zn      -0.14      -8.41      14.05
Zn      -1.76     -11.28      14.02
Zn      -0.14     -10.32      16.60
Zn       1.44     -11.27      14.02
C      -2.67      -8.82      12.61
C      -0.13      -7.40      16.84
C       2.40      -8.86      12.61
C      -2.67     -11.83      16.77
C      -0.18     -13.29      12.58
C       2.41     -11.82      16.72
O      -0.16     -10.31      14.65
O      -2.83     -10.05      12.93
O      -1.73      -8.05      12.96
O      -0.14      -8.54      17.42
O      -0.13      -7.18      15.59
O       2.53     -10.10      12.89
O       1.49      -8.07      13.00
O      -1.69     -11.26      17.36
O      -2.87     -11.92      15.52
O       0.96     -12.83      12.92
O      -1.32     -12.84      12.90
O       1.45     -11.23      17.32
O       2.58     -11.95      15.48
