20

Zn       7.03       8.91      25.84
Zn       9.81       8.88      25.67
N      11.87       8.88      25.72
N       4.97       8.92      25.81
O       7.24      10.97      25.78
O       9.51      10.90      25.66
O       9.65       8.88      23.58
O       7.41       8.90      23.83
O       9.48       6.85      25.68
O       7.22       6.84      25.86
O       7.34       8.92      27.84
O       9.61       8.85      27.76
C       8.39      11.51      25.72
C       8.46       8.88      23.13
C       8.35       6.27      25.77
C       8.50       8.88      28.38
C      12.57       9.69      24.91
C      12.52       8.07      26.57
C       4.32       9.77      25.00
C       4.28       8.06      26.59
