9

Zn       9.40       2.34       2.80
N       7.81       2.12       1.43
C       7.00       1.04       1.45
C       7.50       3.15       0.61
N       8.37       3.51       4.20
C       7.05       3.31       4.35
C       9.01       4.30       5.09
I       9.68       0.13       4.03
I      11.09       3.84       1.61
