23

Zn      22.41       7.83       0.55
Zn      23.90      10.67       0.70
Zn      25.61       7.94       0.71
Zn      24.11       8.88      -1.97
C      21.31      10.15       2.01
C      26.41      10.33       2.25
C      24.01       5.83       2.02
C      26.71       7.49      -2.00
C      21.61       7.34      -2.26
C      23.99      11.84      -2.00
O      24.01       8.83      -0.00
O      21.21       8.93       1.64
O      25.42      11.06       1.89
O      25.15       6.35       1.76
O      22.26      10.96       1.75
O      22.87       6.26       1.65
O      26.64       9.13       1.89
O      26.81       7.35      -0.73
O      22.60       7.95      -2.80
O      25.75       8.04      -2.64
O      21.40       7.20      -1.01
O      23.91      12.00      -0.74
O      24.07      10.73      -2.63
