18

Al       1.41      17.61       6.49
Al       4.76      17.56       6.49
H       3.06      15.82       6.49
H      -0.29      19.36       6.49
C       3.10      19.20       8.31
O       4.22      18.80       5.13
C       3.10      19.20       4.68
C      -0.25      15.97       4.68
O       4.22      18.80       7.86
O       0.87      16.37       7.86
C      -0.25      15.97       8.31
O       0.87      16.37       5.13
O       1.95      18.85       7.86
O       1.95      18.85       5.13
O      -1.40      16.32       5.13
O      -1.40      16.32       7.86
O       3.08      16.78       6.49
O      -0.27      18.39       6.49
