34

Ni       1.38       4.56      13.75
O       1.54       6.01      12.32
Ni       3.80       4.56      13.75
O       1.54       3.11      12.32
H      -3.19       3.68      11.73
H      -3.19       5.45      11.73
H      -0.82       5.45      11.76
H      -0.82       3.68      11.76
H      -3.23       6.64      13.79
H      -3.23       2.48      13.79
H      -3.24       5.76      15.32
H      -3.24       3.36      15.32
H      -0.88       5.77      15.36
H      -0.88       3.35      15.36
H      -0.85       6.64      13.82
H      -0.85       2.48      13.82
C       2.71       6.33      15.58
C       2.71       2.79      15.58
C       2.70       6.37      11.96
C       2.70       2.75      11.96
C      -2.82       5.76      14.31
C      -2.82       3.36      14.31
C      -1.27       5.77      14.34
C      -1.27       3.35      14.34
C      -2.79       4.56      12.24
C      -1.24       4.56      12.26
N      -0.74       4.56      13.66
N      -3.32       4.56      13.62
O       3.81       5.90      12.42
O       3.81       3.23      12.42
O       1.55       6.00      15.21
O       1.55       3.13      15.21
O       3.81       5.87      15.09
O       3.81       3.25      15.09
