20

Zn       6.51       8.00       8.36
Zn       9.50       7.90       8.50
C       8.03      10.56       7.97
C       7.98       5.35       8.89
C       3.78       6.80       8.97
C      12.23       9.10       7.90
C       3.79       8.53       7.40
C      12.22       7.37       9.46
C       7.67       8.59      10.88
C       8.35       7.31       5.98
N       4.46       7.65       8.16
N      11.56       8.25       8.70
O       6.91       9.99       8.07
O       9.11       5.91       8.80
O       9.15       9.92       7.85
O       6.87       5.99       9.02
O       6.52       8.43      10.38
O       9.50       7.48       6.49
O       8.79       8.51      10.29
O       7.23       7.39       6.58
