11

O       5.11       8.39       0.32
Cd       4.01      10.38       0.60
N       4.86      12.42       1.20
C       4.32      10.41      -2.67
N       3.47      10.59      -1.61
C       1.76      10.46       2.18
O       2.86       9.86       2.46
C       4.37      13.44       1.97
C       6.23       8.86      -0.09
C       6.01      12.89       0.73
C       2.26      10.64      -2.16
