18

In       7.34       8.07      13.97
O       8.04       8.82      12.03
In       3.67       8.07      13.97
O       4.37       7.31      15.91
O       2.97       6.01      13.65
H       5.51       7.06      12.22
O       6.64      10.12      14.29
H       9.18       9.07      15.72
C       5.51       6.90      16.31
C       9.18       9.23      11.63
O       5.51       7.54      13.06
C       5.51      10.68      14.14
O       9.18       8.59      14.88
C       9.18       5.45      13.80
O       6.64       7.31      15.91
O      10.31       8.82      12.03
O       4.37      10.12      14.29
O       8.04       6.01      13.65
