62

Hf       0.18      19.51      17.37
Hf       0.12      21.90      20.02
Hf       0.15      16.90      19.77
Hf       0.14      19.28      22.34
Hf       2.62      19.41      19.89
Hf      -2.33      19.41      19.86
H      -1.67      21.44      17.81
H       2.00      21.41      22.01
H      -1.81      17.42      21.88
H       2.10      17.44      17.87
H       1.03      23.83      21.65
H      -0.73      20.60      24.52
H       0.83      17.41      24.08
H       0.14      16.35      22.51
H      -0.54      15.14      17.93
H       0.12      16.79      16.84
H       0.69      21.18      15.44
H      -0.58      24.15      18.68
H      -0.60      15.08      21.78
H      -0.71      17.63      15.72
H       0.98      23.92      18.48
H       0.85      20.45      24.77
C       3.40      19.57      16.81
C      -3.10      22.51      19.95
C       3.43      22.49      19.77
C      -3.14      19.21      16.82
C      -3.05      16.25      19.78
C       3.35      19.26      23.05
C      -3.13      19.51      22.98
C       3.37      16.31      19.95
O       2.21      19.61      16.36
O       3.76      19.51      18.03
O      -1.92      22.97      19.92
O      -3.45      21.29      19.98
O       2.24      22.94      19.64
O       3.76      21.28      19.99
O      -1.96      19.07      16.38
O      -3.48      19.42      18.03
O      -0.05      20.93      16.00
O       0.15      17.60      16.17
O       0.10      23.52      18.35
O       0.23      23.35      21.38
O       1.22      20.50      18.89
O      -1.21      20.87      18.44
O      -1.85      15.79      19.78
O      -3.40      17.47      19.79
O       2.15      19.21      23.50
O       3.70      19.32      21.83
O      -1.93      19.57      23.43
O      -3.47      19.36      21.76
O       2.18      15.87      19.95
O       3.74      17.54      19.90
O       0.16      15.68      21.69
O       0.16      15.80      18.01
O       0.08      17.50      23.47
O       0.17      20.73      24.13
O      -1.25      17.95      21.29
O       1.19      18.33      20.90
O      -0.89      18.40      18.85
O       1.47      20.83      21.44
O       1.54      18.01      18.42
O      -0.94      20.45      20.99
