18

Al       5.54       9.50      11.16
Al       2.21       9.50      11.16
O       2.72      10.70      12.58
O       5.02      10.74       9.81
O       6.08       8.28       9.78
O       5.00      10.74      12.55
O       6.06       8.22      12.53
O       2.74      10.77       9.84
O       3.87       8.68      11.19
O       8.35       8.17      12.49
O       8.36       8.32       9.74
O       7.21      10.29      11.23
H       3.87       7.84      11.68
H       7.21      11.14      11.69
C       3.88      11.16       9.42
C       3.86      11.07      13.01
C       7.21       7.84      12.94
C       7.22       7.95       9.31
