23

Zn      17.69       4.96      31.93
Zn      14.48       4.89      31.78
Zn      16.13       2.15      31.76
Zn      16.01       3.93      34.44
C      16.10       7.03      30.55
C      13.65       2.51      30.22
C      18.77       2.61      30.50
C      16.03       0.99      34.48
C      18.50       5.47      34.73
C      13.37       5.28      34.49
O      16.08       3.98      32.48
O      17.23       6.59      30.94
O      13.44       3.71      30.61
O      17.81       1.82      30.81
O      14.96       6.50      30.76
O      18.86       3.85      30.81
O      14.65       1.78      30.53
O      16.00       0.83      33.21
O      17.48       4.93      35.28
O      16.07       2.09      35.13
O      18.75       5.52      33.49
O      13.27       5.46      33.23
O      14.34       4.72      35.11
