20

Zn      13.02       1.33      25.19
O      13.61       3.29      24.87
O      15.13       0.96      24.89
O      11.06       1.79      24.87
O      12.70      -0.66      24.70
Zn      13.05       1.34      22.32
C      15.70       1.28      23.79
C      12.81      -1.28      23.59
C      10.48       1.60      23.76
C      13.58       3.90      23.75
C      13.42       0.31      19.43
C      13.98       2.39      19.72
N      13.38       1.37      20.31
N      13.02       0.95      27.18
C      12.29       1.33      28.18
C      14.21       0.25      27.71
O      13.16      -0.75      22.48
O      11.05       1.30      22.66
O      13.12       3.42      22.66
O      15.11       1.49      22.68
