24

Al       7.83       5.04      13.97
Al       9.62       7.70      13.87
Al      11.03       5.06      13.92
O       8.61       3.83      15.36
O       7.35       6.23      15.49
O      11.00       7.97      12.60
O       8.36       8.24      15.14
O      10.89       8.03      15.24
O      11.91       6.00      15.35
O      10.87       3.68      15.14
O       8.48       3.96      12.50
O       7.21       6.32      12.63
O       8.49       8.17      12.47
O      12.09       6.00      12.71
O      10.74       3.87      12.50
O       9.51       5.94      13.94
H       5.95       3.97      14.86
O       6.28       4.22      13.99
C       7.65       7.41      15.82
C      11.64       7.16      15.81
C       9.75       3.44      15.73
C       7.63       7.32      12.00
C      11.77       7.08      12.10
C       9.58       3.69      11.95
