10

Al       0.00      14.54      16.79
C       1.99      14.54      14.75
C       1.99      16.32      17.82
C       1.99      12.77      17.82
O       1.05      13.59      18.08
O       1.05      13.91      15.32
O       1.05      16.13      16.98
O      -1.04      12.96      16.98
O      -1.04      15.50      18.08
O      -1.04      15.17      15.32
