10

Al       0.23       6.94       4.05
O      -0.83       6.68       5.60
O      -0.83       5.70       3.04
O      -0.84       8.42       3.44
O       1.32       5.73       5.02
O       1.31       8.42       4.58
O       1.32       6.69       2.46
C      -1.85       5.97       5.83
C      -1.84       5.86       2.30
C      -1.80       8.99       4.07
