18

Al       1.38      20.84      19.30
O       4.19      19.79      20.78
Al       4.73      20.88      19.28
O       0.84      21.93      17.80
O       1.92      19.44      18.09
O      -1.43      22.27      20.48
O       1.91      19.75      20.80
O      -1.44      21.96      17.78
O       0.84      22.20      20.54
O       4.19      19.51      18.04
O       3.04      21.66      19.19
O      -0.31      20.05      19.38
H       3.03      22.51      18.73
H      -0.33      19.21      19.85
C       3.06      19.07      17.66
C      -0.29      22.64      20.92
C       3.06      19.45      21.26
C      -0.29      22.26      17.32
