20

Zn       0.74       3.02      17.63
Zn       0.47       3.21      20.46
N       0.87       2.84      15.59
N       0.37       3.24      22.51
O       2.69       3.54      18.05
O       2.48       3.71      20.31
O       1.22       1.09      18.12
O       1.05       1.24      20.38
O      -1.29       2.62      17.78
O      -1.50       2.72      20.04
O       0.19       5.00      17.69
O      -0.04       5.12      19.95
C       3.16       3.65      19.23
C       1.37       0.64      19.30
C      -1.97       2.75      18.85
C      -0.14       5.59      18.77
C       1.67       3.67      14.90
C       0.07       1.99      14.92
C       1.21       4.03      23.20
C      -0.44       2.39      23.16
