52

Tb      12.74      16.66      21.10
Tb       5.46      16.66      16.64
Tb      16.38      14.71      18.87
Tb       9.10      18.62      18.87
O      10.05      19.58      20.78
O      15.42      13.75      20.78
O       8.15      19.58      16.96
O      17.33      13.75      16.97
C       5.87      18.53      19.56
C      19.61      14.80      19.56
C      12.33      18.53      18.18
C      13.14      14.80      18.18
O      11.59      18.48      22.02
O      13.88      14.85      22.03
O       6.60      18.48      15.72
O      18.87      14.85      15.72
O      12.73      16.66      23.58
O       5.47      16.66      14.16
O      16.38      12.27      18.88
O       9.10      21.06      18.87
H      13.21      16.02      24.13
H      12.27      17.31      24.13
H       4.98      16.02      13.62
H       5.93      17.31      13.62
H      16.70      11.73      18.14
H       8.77      21.60      18.14
H      16.04      11.73      19.60
H       9.43      21.60      19.60
C      10.74      19.40      21.83
C      14.74      13.93      21.83
C       7.46      19.40      15.91
C      18.01      13.93      15.91
C      15.75      17.48      20.98
C       9.72      15.85      20.98
C      17.00      17.48      16.76
C       8.48      15.85      16.76
O      14.71      17.84      21.62
O      10.76      15.49      21.61
O      18.04      17.84      16.13
O       7.44      15.49      16.13
O      15.75      16.51      20.15
O       9.72      16.83      20.15
O      17.00      16.50      17.59
O       8.48      16.82      17.59
O       5.58      18.04      18.43
O      19.90      15.29      18.43
O      12.63      18.04      19.31
O      12.85      15.29      19.32
O       7.05      18.82      19.93
O      18.42      14.51      19.93
O      11.15      18.82      17.81
O      14.33      14.51      17.81
