19

Co       7.96      14.66      18.24
Co       6.78      11.94      19.14
C       9.52      16.96      19.20
C       7.94      17.49      17.59
C       8.44      14.07      20.83
C       4.93       9.60      18.42
C       7.17       9.09      18.53
C       6.38      11.41      21.57
N       8.56      16.55      18.34
N       6.19      10.02      18.62
O       7.40      14.07      20.02
C       9.14      12.37      17.17
O       5.37      11.88      20.94
O       7.51      11.29      20.96
O       9.17      13.66      17.14
O       8.36      11.69      17.90
C       5.34      13.90      17.35
O       6.29      14.75      17.22
O       5.35      12.88      18.12
