24

Al       4.83       2.91       0.05
Al       6.58       5.61       0.05
Al       8.04       3.00       0.06
O       5.57       1.80       1.54
O       5.41       6.12       1.41
O       9.00       3.93       1.40
O       4.29       4.07      -1.43
O       7.86       5.93      -1.32
O       7.85       1.75      -1.30
O       5.58       1.74      -1.33
O       5.34       6.08      -1.26
O       9.03       3.98      -1.23
O       6.50       3.85       0.06
O       4.24       4.17       1.49
O       7.94       5.94       1.31
O       7.83       1.67       1.34
O       3.30       2.07       0.04
H       2.92       1.87       0.91
C       6.71       1.43       1.93
C       6.70       1.51      -1.85
C       4.66       5.19      -1.90
C       8.68       5.07      -1.80
C       4.60       5.29       1.96
C       8.74       5.10       1.85
