20

Zn      -0.37       5.33       7.06
Zn      -3.25       5.28       7.33
C      -1.89       7.82       7.23
C      -1.73       2.81       7.37
C       3.68       4.96       8.36
C       2.42       5.67       6.08
C       2.30       4.95       8.27
C       3.81       5.64       6.16
C      -1.90       5.22       4.62
C      -1.62       5.54       9.82
N       1.68       5.32       7.14
N       4.43       5.30       7.29
O      -0.90       7.27       6.66
O      -2.82       3.34       6.99
O      -2.89       7.22       7.73
O      -0.68       3.41       7.71
O      -0.79       4.78       5.13
O      -2.70       4.98       9.40
O      -2.89       5.60       5.30
O      -0.65       5.89       9.06
