19

Eu       7.97       4.60       2.73
C       6.17       6.82       0.91
C       6.94       1.93       0.91
C      10.79       5.04       0.91
O       5.33       2.23       4.97
O      11.34       3.50       4.97
O       7.23       8.07       4.97
N       6.11       2.89       4.27
N      10.37       3.84       4.27
N       7.41       7.06       4.27
O       6.35       5.63       1.41
O       7.89       2.68       1.41
O       9.66       5.49       1.41
O       5.71       3.56       3.25
O       9.99       3.17       3.25
O       8.19       7.07       3.25
O       7.37       2.95       4.54
O       9.69       4.90       4.54
O       6.84       5.94       4.54
