20

Zn       1.58       2.41      13.50
Zn       1.89       2.09      10.65
C       1.81       4.85      11.85
C       1.67      -0.31      12.54
C      -0.82       2.25      11.60
C       4.33       2.26      12.33
N       1.51       2.90      15.53
N       2.46       2.05       8.64
O       1.93       4.37      13.03
O       1.65       4.17      10.78
O       1.31       0.38      13.56
O       2.04       0.16      11.42
O      -0.33       2.62      12.72
O      -0.14       1.88      10.58
O       3.65       2.11      13.40
O       3.85       2.38      11.16
C       0.46       2.78      16.37
C       2.67       3.41      15.98
C       2.51       0.98       7.81
C       2.96       3.23       8.23
