14

Zn      15.99       5.29       8.24
Zn      15.96       5.32      10.92
O      16.00       3.38      10.23
O      14.05       5.32       8.93
O      16.05       3.35       7.97
O      14.02       5.37      11.19
C      16.07       2.77       9.12
C      13.44       5.38      10.04
C      16.09       7.82       8.99
C      18.49       5.44      10.17
O      17.90       5.31       9.05
O      15.97       7.23      10.11
O      16.09       7.21       7.85
O      17.88       5.44      11.31
