36

Zn       7.41      11.91       8.30
N       7.65      11.11      10.17
N       6.62      14.75       8.31
Zn      10.14      12.94      10.00
N       6.49      13.55       8.95
Zn       7.76      14.99       6.70
N       8.70      11.73      10.83
N       6.69      12.06       6.35
N       7.86      17.08       7.00
N       9.62      14.65      10.92
N       9.37      15.77      10.16
N      12.04      14.99       9.15
N      10.33      12.16       8.17
N       9.48      15.27       5.64
Zn      10.32      15.86       8.33
N       9.25      11.54       7.62
N       7.32      13.16       5.80
N      12.05      13.81       9.86
N      10.65      15.52       6.34
N       8.99      17.37       7.74
C       6.67      10.90      11.08
C       9.67      10.55       6.83
C       7.72      12.83       4.56
C       9.20      18.70       7.68
C      13.31      13.55      10.23
C      10.22      15.04      12.06
C       5.53      15.50       8.56
C       9.79      16.85      10.85
C       6.70      11.08       5.42
C       5.32      13.55       9.60
C       7.38      18.22       6.51
C       8.35      11.89      12.12
C      13.29      15.46       9.09
C      11.45      11.54       7.72
C       9.39      16.16       4.61
C      11.28      16.54       5.73
