23

Zn      -3.34      13.12       0.82
Zn      -3.92      11.60      -1.92
Zn      -2.07      10.21       0.24
Zn      -5.18      10.54       0.85
O      -3.63      11.37      -0.00
O      -3.33      14.56      -0.51
O      -2.53      10.73      -2.99
O      -0.63      11.18       1.17
O      -3.93      13.50      -2.43
O      -1.60      13.16       1.74
O      -1.37       9.55      -1.46
O      -2.50       8.63       1.34
O      -5.89      11.63       2.31
O      -4.76       8.77       1.60
O      -4.72      13.56       2.13
O      -5.66      10.85      -2.45
O      -6.63      10.28      -0.46
C      -3.63      14.54      -1.75
C      -1.60       9.89      -2.68
C      -0.64      12.32       1.73
C      -3.63       8.20       1.75
C      -5.65      12.85       2.68
C      -6.62      10.41      -1.73
