18

Al       0.33      13.63       8.17
Al       3.72      13.69       8.14
O       2.04      12.84       8.15
O      -0.24      12.40       6.78
H       2.03      11.87       8.15
H      -1.32      15.45       8.20
O       3.14      14.86       9.53
O      -1.35      14.48       8.16
O       0.89      14.85       6.79
O      -0.21      12.40       9.52
C      -1.37      12.07       6.31
C      -1.34      12.06       9.99
C       2.00      15.25      10.00
C       2.02      15.26       6.32
O       0.88      14.88       9.53
O       3.15      14.92       6.80
O       4.27      12.49       6.78
O       4.29      12.46       9.51
