18

O       5.43       1.52      14.63
Al       2.64       0.33      15.98
O       2.14      -0.65      17.51
Al       6.02       0.29      15.96
O       3.22       1.80      17.21
O       3.17       1.43      14.50
O       2.08      -1.09      14.78
O       5.46       1.51      17.32
O       4.32      -0.49      16.03
O       6.53      -0.97      14.61
O       6.62      -0.89      17.32
O       7.70       1.15      15.86
C       4.37       2.03      17.72
C       4.30       1.90      14.17
C       7.68      -1.41      14.26
C       7.75      -1.13      17.87
H       4.28      -1.41      15.73
H       7.72       1.86      15.18
