18

Al       6.64       7.94       0.02
O       9.49       6.73      -1.43
Al       3.30       7.88       0.05
O       7.13       6.89       1.55
H       5.00       6.27      -0.54
H       8.35       9.56      -0.52
O       3.89       9.29      -1.18
O       6.00       9.30       1.21
O       6.14       9.04      -1.49
O       3.79       8.92       1.58
O       9.35       6.54       1.24
O       7.22       6.59      -1.25
O       4.98       7.08      -0.00
O       8.32       8.74      -0.01
C       8.25       6.37       1.86
C       8.34       6.31      -1.79
C       4.99       9.52      -1.79
C       4.91       9.46       1.85
