15

Cu       1.96      26.80      10.57
Cu       3.13      25.58      13.24
Cu       4.77      27.82      11.70
C      -0.08      24.76      11.11
C       0.63      24.08      13.09
C       4.61      29.41       9.25
C       2.61      28.79       8.53
C       5.61      25.53      14.79
C       6.70      27.20      13.82
N       1.48      25.02      12.64
N       1.04      25.45      11.41
N       2.86      28.14       9.68
N       4.10      28.53      10.14
N       5.49      27.08      13.23
N       4.81      26.05      13.84
