20

Zn       3.52       7.10       7.50
Zn       3.52       4.33       8.03
C       3.56       6.25      10.29
C       2.88       1.90       9.62
C       4.05       9.51       5.86
C       4.40       1.57       7.89
C       2.45       9.81       7.52
C       3.82       5.12       5.27
C       0.92       5.69       7.74
C       6.13       5.82       7.78
N       3.60       2.37       8.58
N       3.33       9.04       6.90
O       3.77       7.26       9.53
O       3.97       4.11       6.04
O       3.22       5.08       9.90
O       3.36       6.25       5.64
O       1.48       6.83       7.82
O       5.56       4.80       8.27
O       1.49       4.55       7.66
O       5.58       6.86       7.30
