11

Zn       8.71       4.03      19.91
O       7.20       2.84      20.43
N       9.66       2.80      18.49
N       7.77       5.26      18.49
C       9.49       1.46      18.43
C      10.47       3.39      17.60
C       7.93       6.59      18.43
C       6.96       4.66      17.60
O      10.23       5.22      20.43
C       7.70       1.98      21.27
C       9.73       6.08      21.27
