14

O      13.91      11.81      13.43
Zn      11.88      13.53      11.71
Zn      11.88      11.71      13.53
C       9.27      12.62      12.62
C      14.48      12.62      12.62
C      11.88      14.45      14.45
O      11.88      14.84      13.23
O      11.88      10.40      12.01
O      11.88      12.01      10.40
C      11.88      10.79      10.79
O      11.88      13.23      14.84
O       9.84      13.43      11.81
O       9.84      11.81      13.43
O      13.91      13.43      11.81
