18

Al       6.66       0.05      12.60
O       4.98      -0.74      12.65
O       8.32       0.90      12.60
Al       3.32       0.09      12.56
H       8.31       1.75      13.07
H       4.95      -1.57      13.16
C       4.98       1.67      14.43
C       5.06       1.67      10.79
C       8.36      -1.63      10.89
C       8.29      -1.57      14.40
O       6.09       1.40      13.87
O       3.91       1.36      11.26
O       2.82      -1.08      11.13
O       7.15      -1.07      14.10
O       7.25      -1.31      11.42
O       2.74      -1.25      13.87
O       3.83       1.30      14.02
O       6.17       1.15      11.13
