11

C       7.56       2.18      10.03
C       5.39       4.50      13.44
N       5.94       1.12      14.43
Cu       6.31       1.90      12.67
N       6.67       2.68      10.90
C       7.23      -0.69      11.89
O       4.98       3.35      13.03
C       6.56       0.05      15.05
O       7.64       0.46      12.31
C       6.06       3.76      10.28
C       5.06       1.62      15.30
