23

O     -13.39      11.61      10.31
O     -16.27      15.16       8.46
O     -12.09      11.25       5.92
O     -15.32      14.17      10.29
Zn     -15.25      14.42       6.96
Zn     -13.61      13.44       9.62
O     -13.85      10.39       8.43
Zn     -13.69      11.66       6.97
O     -12.01      14.36      10.34
O     -16.47      13.19       6.02
Zn     -12.08      14.43       6.96
O     -12.50      16.02       5.89
O     -10.98      13.24       5.84
O     -13.66      13.50       7.65
O     -15.22      11.29       5.80
O     -10.94      15.01       8.44
O     -14.77      15.85       5.70
C     -16.27      12.00       5.61
C     -11.01      14.84       9.70
C     -13.64      16.39       5.45
C     -13.59      10.50       9.68
C     -16.23      14.85       9.70
C     -11.13      12.01       5.54
