34

Zn      -1.16       6.46      12.95
N      -3.99       6.91      13.08
N       0.31       7.51      12.36
Zn      -3.85       5.77      14.75
N      -2.18       6.76      16.95
Zn      -3.23       8.41      16.58
N      -1.72       9.93      14.51
Zn      -0.13       9.13      15.37
C       0.69       7.64      11.06
C      -4.99       6.85      12.18
C      -1.81       6.41      18.20
C      -1.94      11.11      13.89
C      -0.13      10.44      18.06
C      -2.84       2.87      13.84
C      -2.25      10.57      18.70
C      -3.16       7.49      11.12
C      -0.88       3.54      13.10
C      -2.46       4.59      17.14
C       2.84       8.86      15.50
C      -3.89      10.19      14.39
C      -6.68       6.81      15.17
C      -6.18       8.63      16.31
N       1.52       7.04      15.60
N      -0.85       9.61      17.29
N      -2.87       4.21      13.79
N      -2.16       9.69      17.68
N      -1.64       4.63      13.34
N      -2.58       5.63      16.29
N       1.61       8.40      15.81
N      -2.86       7.31      12.43
N      -2.92       9.36      14.82
N       0.60       8.66      13.05
N      -5.44       6.65      15.68
N      -5.13       7.79      16.39
