15

N      19.42      15.80      11.52
N      19.88      16.97      12.06
C      24.91      18.60       9.74
C      23.82      19.40      11.51
C      20.78      13.47       7.69
Cu      23.04      16.45       9.02
Cu      21.48      17.68      11.48
C      19.06      17.33      13.07
Cu      20.29      15.13      10.04
C      18.31      15.43      12.19
C      22.73      14.33       7.03
N      23.09      18.41      10.98
N      23.76      17.91       9.89
N      22.33      14.99       8.14
N      21.13      14.46       8.54
