23

Zn      19.93       9.62       0.84
Zn      20.56      11.12      -1.91
Zn      18.68      12.50       0.24
Zn      21.80      12.18       0.84
O      20.24      11.35       0.00
O      20.00       8.16      -0.49
O      19.26      12.08      -3.00
O      17.27      11.59       1.26
O      20.49       9.22      -2.43
O      18.13       9.53       1.65
O      17.91      13.07      -1.46
O      19.13      14.13       1.26
O      22.58      11.05       2.23
O      21.35      13.92       1.65
O      21.23       9.22       2.23
O      22.36      11.76      -2.43
O      23.22      12.55      -0.49
C      20.24       8.14      -1.76
C      18.27      12.81      -2.66
C      17.17      10.39       1.76
C      20.24      14.57       1.76
C      22.22       9.90       2.66
C      23.31      12.32      -1.76
