18

Al       5.81       5.83       8.41
Al       2.48       5.83       8.41
H       4.13       7.20       7.28
H       7.48       4.46       9.53
O       6.31       7.68       8.59
O       8.65       5.54       6.57
O       3.07       4.01       8.53
O       5.21       5.81      10.24
O       5.31       3.98       8.22
O       2.97       6.12      10.25
O       8.55       7.65       8.28
O       6.40       5.85       6.57
C       7.44       8.25       8.43
C       7.52       5.65       5.99
C       4.18       3.42       8.38
C       4.10       6.01      10.82
O       4.14       6.39       7.82
O       7.47       5.27       8.99
