24

Al       5.22       4.99      13.70
Al       7.00       2.31      13.77
Al       8.44       4.94      13.59
O       4.74       3.84      15.25
O       4.62       3.69      12.42
O       8.38       1.92      12.55
O       8.17       6.00      12.09
O       5.91       6.06      12.22
O       5.87       1.80      12.37
O       9.49       3.88      12.45
O       6.91       4.07      13.69
O       8.21       2.15      15.25
H       3.47       6.37      14.44
C       7.16       6.44      15.48
O       8.22       6.38      14.73
C       5.06       2.69      15.66
O       5.99       6.14      15.12
O       5.72       1.79      15.01
O       9.29       4.14      15.11
O       3.68       5.81      13.68
C       8.92       3.10      15.75
C       7.00       6.26      11.61
C       5.04       2.64      11.85
C       9.13       2.76      11.94
