18

Al       5.98       6.78       8.37
Al       2.65       6.78       8.37
H       4.32       8.16       7.25
H       7.65       5.44       9.54
O       6.60       8.57       8.16
O       8.69       6.86       6.56
O       3.14       4.92       8.10
O       5.49       7.15      10.21
C       7.69       9.19       8.40
C       7.60       6.57       5.97
C       4.27       4.37       8.34
C       4.37       6.98      10.77
O       5.36       4.99       8.58
O       3.27       6.70      10.19
O       8.83       8.64       8.63
O       6.47       6.41       6.53
O       4.32       7.34       7.77
O       7.65       6.22       8.97
