36

Al       8.69       0.07      22.61
Al      11.97       0.03      22.64
Al      15.26      -0.02      22.61
Al       5.40       0.02      22.59
C       6.96       1.93      21.11
H      10.36      -0.48      20.97
H      13.63       0.55      24.27
C      13.61      -1.85      21.09
O      10.34       0.07      21.77
O       9.26      -1.15      24.01
O      11.38       1.21      24.03
O      11.47      -1.53      23.66
O       9.19       1.60      23.63
O      13.62      -0.01      23.48
O       8.27      -1.46      21.51
O      12.48       1.60      21.63
O      12.55      -1.16      21.25
O       8.04       1.28      21.27
O       3.74       0.02      21.75
O      15.92      -1.23      23.94
C      13.59       1.89      21.10
O       4.75       1.18      24.01
O       4.97      -1.56      23.58
O      15.69       1.53      23.69
O       7.04       0.03      23.45
O      14.75      -1.56      21.59
H       3.71       0.58      20.96
O       5.82       1.60      21.59
O       6.05      -1.12      21.18
O      14.67       1.20      21.21
H       7.06      -0.52      24.24
C       3.84      -1.88      24.09
C       3.68       1.84      24.17
C       7.13      -1.78      21.02
C      10.34      -1.83      24.15
C      10.31       1.89      24.16
