13

O       4.82       5.89      15.69
C       2.62       8.16      15.93
Ni       3.17       5.40      16.87
N       4.03       5.77      18.63
O       1.60       4.23      17.53
C       4.30       5.33      14.67
O       3.52       3.22      17.10
C       0.89       7.19      17.14
N       2.14       7.10      16.62
C       5.35       6.06      18.64
O       3.11       4.88      14.70
C       2.29       3.15      17.40
C       3.40       5.60      19.81
