23

Zn      16.15      16.27      22.43
Zn      17.67      15.34      25.10
Zn      15.94      18.05      25.13
Zn      14.48      15.17      24.94
C      18.76      14.89      22.40
C      18.45      17.71      26.66
C      16.05      19.22      22.40
C      13.34      17.51      26.40
C      13.66      14.70      22.14
C      16.07      13.19      26.39
O      16.05      16.22      24.40
O      17.80      15.44      21.76
O      18.68      16.51      26.30
O      15.97      19.37      23.67
O      18.87      14.76      23.67
O      16.14      18.12      21.76
O      17.46      18.43      26.31
O      14.29      18.35      26.15
O      13.45      14.55      23.39
O      13.28      16.30      26.02
O      14.65      15.32      21.61
O      17.19      13.73      26.11
O      14.91      13.60      26.03
