20

Zn       5.69       4.75       6.61
Zn       2.96       5.13       6.42
H       7.92       4.66       8.13
H      10.74       5.23       4.90
C       3.98       2.36       6.69
C       4.65       7.52       6.33
C      10.03       5.01       6.72
C       8.63       4.87       6.31
C       3.91       5.10       9.12
C       4.75       4.77       3.91
N      10.99       5.19       5.90
N       7.66       4.69       7.13
O       5.19       2.79       6.68
O       3.45       7.09       6.35
O       2.93       3.10       6.68
O       5.70       6.78       6.33
O       5.05       4.97       8.58
O       3.61       4.92       4.45
O       2.81       5.29       8.50
O       5.85       4.57       4.53
