20

Zn       2.10      13.55      22.82
Zn       1.82      11.71      24.93
O       2.43      14.83      24.40
O       1.65      13.47      26.04
O      -0.20      11.95      24.54
O       0.06      13.83      23.30
O       1.80      10.44      23.31
O       1.39      11.99      21.72
O       4.06      12.95      22.97
O       3.83      11.95      24.98
C       2.00      14.60      25.57
C      -0.65      12.93      23.85
C       1.35      10.80      22.18
C       4.52      12.43      24.03
C       1.42      15.93      21.22
C       2.88      14.59      20.02
C       0.91      10.44      27.44
C       2.50       9.10      26.42
N       2.19      14.82      21.15
N       1.77      10.22      26.41
