16

Cu       4.31       6.89       6.87
Si       0.30       6.89       6.87
C       3.16       6.89       9.61
C       5.50       6.89       9.58
N       4.31       4.84       6.87
N       4.32       8.94       6.87
N       4.31       6.88       4.82
N       4.32       6.89       8.92
F       2.04       6.91       6.89
F       6.59       6.87       6.85
C       3.13       4.17       6.87
C       5.46       4.15       6.87
C       3.16       9.63       6.87
C       5.50       9.60       6.87
C       3.13       6.88       4.16
C       5.46       6.88       4.13
