23

Zn      18.55      12.52       9.81
Zn      16.96      11.50       7.28
Zn      20.17      11.53       7.20
Zn      18.47      14.29       7.11
C      16.01      11.09      10.04
C      18.55       9.41       5.92
C      21.11      11.09       9.99
C      21.07      13.85       5.66
C      18.52      15.49       9.80
C      15.96      13.81       5.70
O      18.57      12.47       7.85
O      16.99      11.66      10.62
O      17.42       9.88       6.27
O      21.28      10.96       8.74
O      15.84      10.94       8.78
O      20.12      11.64      10.58
O      19.71       9.89       6.19
O      21.29      12.64       6.02
O      18.48      15.65       8.53
O      20.07      14.56       6.00
O      18.54      14.38      10.43
O      15.87      12.61       6.11
O      16.90      14.63       5.98
