20

O      15.93      14.62      26.45
O      13.55      12.24      26.20
Cu      13.08      13.89      27.25
Cu      14.27      15.09      25.40
C      13.43      16.74      27.53
O      14.05      16.74      26.42
O      11.43      14.11      26.23
C      11.43      14.74      25.11
H      11.08      13.00      28.96
H      15.16      17.08      23.69
O      12.03      12.76      28.95
C      15.85      14.07      27.60
C      14.10      12.32      25.05
O      15.41      16.14      23.69
H      12.40      13.11      29.78
H      15.06      15.77      22.87
O      12.85      15.73      28.07
O      12.44      15.31      24.57
O      14.77      13.74      28.21
O      14.43      13.39      24.44
