24

Al       4.95       4.49      14.16
Al       1.75       4.60      14.10
Al       3.26       7.20      14.06
O       5.62       5.82      15.43
O       0.85       5.58      12.75
O       1.94       7.57      12.77
O       4.48       7.59      12.70
O       3.30       5.44      14.11
O       4.23       3.54      15.73
O       1.98       3.30      15.43
O       0.80       5.54      15.43
O       1.95       7.51      15.43
O       4.46       7.78      15.35
O       5.42       5.52      12.56
O       4.15       3.18      12.88
O       1.89       3.30      12.77
O       6.48       3.64      14.23
H       6.67       3.03      13.51
C       3.07       3.19      16.10
C       1.17       6.65      15.96
C       5.27       6.94      15.90
C       3.05       2.99      12.29
C       1.22       6.68      12.20
C       5.10       6.64      12.07
