14

N      12.93      10.97      12.62
N      16.11      13.82      18.07
Cd      14.32      12.62      15.34
N      13.86      11.05      13.61
N      15.93      12.90      17.07
N      15.93      10.81      15.34
O      14.43      14.52      14.19
O      12.42      12.72      16.50
C      14.69      10.01      13.52
C      16.87      11.96      17.17
C      15.83       9.84      14.43
C      16.91      10.81      16.26
C      15.46      14.36      13.43
C      12.46      11.68      17.25
