24

C       3.26       0.44       1.90
Al       1.49      -1.10      -0.04
Al       4.70      -0.86      -0.04
C       1.32      -3.56       1.72
C       3.21       0.53      -1.91
Al       3.48      -3.61      -0.01
C       1.47      -3.48      -1.92
C       5.41      -2.81       1.95
C       5.67      -2.92      -1.73
O       0.95      -2.43       1.32
O       2.14      -0.00       1.52
O       4.35       0.45       1.21
O       5.68      -1.70       1.36
O       4.71      -3.76       1.45
O       2.25      -4.30       1.20
O       1.04      -2.38      -1.48
O       2.12       0.15      -1.42
O       4.39       0.34      -1.43
O       5.83      -1.74      -1.28
O       4.95      -3.83      -1.20
O       2.43      -4.19      -1.41
O       3.25      -1.87      -0.04
H      -0.56      -0.32       0.77
O      -0.07      -0.32      -0.06
