18

Al       1.91      15.30      15.74
O       3.59      16.09      15.72
Al       5.26      15.30      15.74
O       5.79      16.53      14.34
O       5.79      16.58      17.06
O       0.24      14.50      15.74
H       3.59      17.05      15.82
H       0.24      13.57      15.48
C       3.58      13.77      17.61
C       3.59      13.63      13.99
C       0.24      16.90      13.92
C       0.24      16.97      17.49
O       4.73      14.01      14.40
O       2.44      14.09      17.15
O       1.38      16.58      17.06
O       2.45      14.01      14.41
O       1.38      16.52      14.34
O       4.73      14.09      17.15
