11

Zn       7.99       8.84      12.68
C       9.09      10.30      10.57
O       9.18       7.51      13.46
O       8.41      10.46      11.65
C       9.60       7.81      14.67
C       5.84       8.08      10.76
N       6.67       9.30      14.16
C       6.61      10.50      14.76
N       6.82       7.59      11.54
C       6.95       6.24      11.63
C       5.96       8.28      14.69
