14

C      -2.12       7.90      13.18
O      -0.85       9.75      16.26
Zn      -2.21       8.37      16.33
O      -1.71       7.76      14.37
C      -4.01       6.53      15.80
O      -3.05       6.64      16.65
O      -3.09       8.66      12.81
Zn      -3.86       9.41      14.44
O      -4.44       7.47      15.06
O      -2.31      10.73      14.82
O      -5.17      10.22      15.64
O      -3.67       9.54      17.21
C      -4.76      10.08      16.85
C      -1.20      10.67      15.43
