36

Cu       5.91      10.68       6.55
Cu       2.40       7.79       5.97
Cu       9.43       9.74       3.77
C       6.91      13.33       7.82
C       3.40       5.37       7.63
C      10.42       9.52       0.84
C       3.59       9.81       7.77
C       0.08       7.18       4.61
C       7.11      11.23       3.91
C       1.44       8.71       8.58
C       8.47       7.03       3.25
C       4.96      12.49       4.46
N       6.73       8.97       7.30
N       3.21       8.01       4.11
N      10.24      11.24       4.88
N       7.30      12.05       7.76
N       3.79       6.07       6.56
N      10.82      10.10       1.98
O       4.53      10.64       8.03
O       1.02       6.53       5.20
O       8.05      11.04       3.06
O       3.61       9.17       6.66
O      10.64       8.46       4.62
O       7.12      10.59       5.02
O       1.33       7.86       7.59
O       8.36       8.31       3.01
O       4.84      12.05       5.69
C       7.43       8.15       6.48
C       3.91       9.12       3.82
C      10.94      10.95       5.99
C       6.63       8.64       8.60
C       3.11       7.05       3.18
C      10.15      12.54       4.51
C       8.43      11.70       8.39
C       4.92       5.69       5.93
C      11.95      10.83       1.96
