24

Al      13.32       8.46      16.28
Al      11.90       5.62      16.73
Al      10.18       8.07      16.75
O      12.72       9.63      17.69
O      10.55       5.04      15.54
H      15.30       9.22      15.30
O       9.22       6.87      15.60
O      11.78       7.37      16.59
C      13.97       6.34      18.38
O      10.01       9.27      15.34
O      14.18       7.39      17.71
C       9.96       6.14      18.79
O      13.23       5.35      17.99
O      10.71       5.30      18.18
O       9.47       7.19      18.25
O      10.47       9.49      17.96
O      12.23       9.41      14.93
O      13.80       7.24      14.84
O      13.06       5.16      15.34
C      11.65       9.84      18.34
O      14.74       9.47      16.04
C      13.55       6.03      14.53
C       9.66       5.81      15.04
C      11.02       9.58      14.60
