18

Al       5.65       5.67       9.87
Al       2.20       5.66       9.94
C       3.89       7.52       8.39
C       3.95       6.89      11.95
C       7.34       3.81      11.42
C       7.40       4.44       7.86
O       6.21       4.21      11.00
O       2.76       7.12       8.81
O       2.80       6.61      11.49
O       6.24       4.73       8.32
O       5.06       7.12       8.73
O       8.50       4.22      11.08
O       5.08       6.64      11.41
O       8.53       4.70       8.40
H       3.91       4.08       9.18
H       7.36       7.25      10.63
O       3.93       4.88       9.74
O       7.37       6.46      10.07
