24

Cd       6.34       8.17       4.94
Cd       8.69       8.17       7.92
N       6.48       5.85       5.01
N       8.56       5.85       7.85
N       6.69       7.99       2.57
N       8.34       7.99      10.29
C       5.65       8.06       1.76
C       9.39       8.06      11.10
N       8.77      10.54       8.10
N       6.26      10.54       4.76
Cl       3.75       8.20       4.51
Cl      11.28       8.20       8.35
Cl       6.02       8.33       7.61
Cl       9.01       8.33       5.25
C       5.37       5.06       5.20
C       9.67       5.06       7.66
C       7.50       5.04       4.79
C       7.54       5.04       8.07
C       8.70      11.36       9.20
C       6.34      11.36       3.65
C       7.77       7.58       1.81
C       7.27       7.58      11.05
C       9.06      11.31       7.07
C       5.98      11.31       5.79
