11

Zn       6.12       4.61       8.59
C       4.54       4.46      11.04
N       9.39       4.50       8.38
N       8.31       4.50       8.59
O       5.91       6.62       8.87
C       4.83       7.19       8.50
O       5.94       2.60       8.25
O       6.09       4.91       6.57
O       5.69       4.25      10.53
C       4.82       2.03       8.49
C       5.07       4.48       5.94
