46

C      19.14      16.97      23.84
Tb      17.00      14.72      22.91
O      19.94      15.68      20.08
O      12.63      13.99      20.08
O      13.18      17.36      22.66
Tb      13.44      15.06      22.04
Tb      20.75      14.61      22.04
O      20.49      12.31      22.66
O      11.72      15.98      23.61
C      11.83      12.70      23.84
Tb      24.30      14.94      22.91
O      19.03      13.69      23.61
O      17.93      16.57      23.89
O      25.24      13.10      23.89
O      11.09      15.24      21.05
O      18.39      14.42      21.05
O      23.86      17.32      22.80
O      16.55      12.35      22.80
O      15.99      16.32      21.59
O      23.29      13.35      21.59
O      16.48      14.37      25.22
C      18.82      15.09      20.01
C      11.51      14.58      20.01
O      23.79      15.30      25.22
C      14.35      14.40      26.27
C      21.65      15.27      26.27
C      15.37      16.73      20.53
C      22.68      12.94      20.53
C      15.24      14.63      25.12
C      22.55      15.04      25.12
C      12.26      17.17      23.51
C      19.57      12.50      23.51
C      11.85      18.24      24.44
C      19.16      11.43      24.44
C      23.06      17.20      21.82
C      15.75      12.47      21.82
C      22.74      18.34      20.94
C      15.44      11.33      20.94
O      19.98      16.53      22.99
O      12.68      13.14      22.99
O      14.79      15.08      23.99
O      22.09      14.59      23.99
O      22.57      16.03      21.53
O      15.26      13.64      21.53
O      14.23      16.27      20.21
O      21.54      13.39      20.21
