20

Zn       5.31       8.47       8.98
Zn       8.10       8.60       9.10
C       6.82       5.92       9.02
C       6.82       8.55       6.41
C       6.58      11.15       9.07
C       6.59       8.52      11.67
C      10.89       7.90       8.37
C      10.76       9.50      10.06
C       2.51       9.17       9.71
C       2.64       7.57       8.03
N      10.15       8.68       9.19
N       3.26       8.39       8.89
O       5.66       6.44       8.96
O       7.93       6.55       9.07
O       7.92       8.60       7.04
O       5.67       8.49       6.95
O       7.74      10.63       9.11
O       5.47      10.52       9.02
O       5.49       8.46      11.04
O       7.73       8.59      11.14
