18

Al       5.60      11.98      25.34
Al       2.28      12.01      25.31
H       3.92      10.28      24.92
H       7.26      13.66      25.84
O       6.15      10.67      26.64
O       8.38      10.78      23.95
O       2.79      13.25      23.91
O       5.08      13.14      26.78
O       5.05      13.27      24.05
O       2.82      13.24      26.69
O       8.41      10.75      26.70
O       6.12      10.80      23.91
O       3.93      11.17      25.31
O       7.26      12.81      25.36
C       7.28      10.34      27.12
C       7.25      10.40      23.49
C       3.95      13.60      23.51
C       3.95      13.56      27.19
