24

Al      -1.29       6.21      14.16
Al      -2.94       3.45      14.09
Al      -4.48       6.03      14.08
O      -2.09       7.37      15.48
O      -4.30       3.10      12.81
O      -5.50       5.03      12.83
O      -4.27       7.21      12.65
O      -2.93       5.21      14.10
O      -0.79       5.03      15.67
O      -1.70       2.96      15.36
O      -4.23       3.09      15.46
O      -5.36       5.06      15.48
O      -4.36       7.39      15.32
O      -2.00       7.25      12.65
O      -0.61       4.96      12.79
O      -1.79       3.02      12.68
O       0.21       7.10      14.23
H       0.88       6.87      13.57
C      -1.07       3.86      16.05
C      -5.01       3.94      15.99
C      -3.24       7.67      15.91
C      -0.99       3.91      12.19
C      -5.11       3.94      12.28
C      -3.12       7.47      12.11
