20

Zn       3.74       5.88       7.77
Zn       6.56       5.90       7.54
C       5.39       8.43       7.81
C       5.08       5.75      10.30
C      -0.50       5.64       8.55
C       5.13       3.32       7.65
C      -0.32       5.80       6.29
C       1.04       6.27       6.48
C       0.88       5.78       8.69
C       4.88       5.96       5.09
N      -1.16       5.65       7.39
N       1.66       6.17       7.68
O       4.28       7.84       7.58
O       6.52       7.86       7.99
O       3.93       5.98       9.78
O       6.16       5.58       9.66
O       4.00       3.83       7.94
O       6.14       3.98       7.24
O       3.89       5.48       5.74
O       5.92       6.47       5.60
