18

Al       0.06       0.01       9.66
Al       3.44      -0.01       9.64
H       1.75       1.77       9.61
H      -1.62      -1.76       9.62
C      -1.66       1.57      11.48
C      -1.60       1.57       7.83
C       1.76      -1.56       7.83
C       1.73      -1.56      11.47
O      -0.53       1.32      10.94
O      -2.73       1.28       8.35
O       2.91      -1.14       8.18
O       0.58      -1.12      11.13
O       0.65      -1.31       8.39
O       2.84      -1.33      10.90
O      -2.80       1.13      11.10
O      -0.46       1.18       8.22
O       1.75       0.80       9.65
O      -1.62      -0.80       9.65
