23

Zn       5.58       4.66       2.50
C       1.48       2.03       4.55
N       6.40       3.00       1.56
C       0.67       1.58       5.59
N       7.26       5.26       3.55
H       1.18       1.91       3.51
C       1.06       1.79       6.92
H      -0.27       1.07       5.37
C       2.26       2.44       7.20
O       4.63       3.79       4.04
C       3.08       2.87       6.15
H       0.42       1.44       7.73
C       6.99       3.03       0.34
O       3.12       3.09       2.51
H       2.57       2.61       8.23
O       4.86       6.15       1.61
H       4.03       3.38       6.35
C       6.29       1.81       2.18
C       8.30       5.87       2.95
C       7.34       5.03       4.88
H       4.12       5.87       1.05
C       3.52       3.22       3.69
C       2.69       2.68       4.82
