11

Cu       1.31      15.33       5.18
C      -0.24      16.40       3.01
C       1.94      16.08       2.35
C       2.85      14.36       7.40
C       0.68      14.77       8.04
C       3.27      17.34       5.40
N       1.61      14.73       7.06
C      -0.65      13.29       5.06
N       1.01      16.01       3.32
O       3.13      16.07       5.23
O      -0.49      14.58       5.10
