9

C       8.85       4.19       5.40
C       6.96       3.20       4.48
C       6.90       4.46       0.70
Zn       9.15       3.55       2.48
C       7.01       2.14       0.88
I      10.15       5.87       2.10
I      10.31       1.28       2.46
N       8.22       3.64       4.34
N       7.50       3.36       1.20
