23

Zn       1.66       9.34       1.08
Zn      -0.14       7.70      -0.98
Zn       0.03      10.94      -0.99
Zn      -1.66       9.33       1.22
O      -0.04       9.32       0.11
O       2.58       7.64       0.88
O      -0.64       8.28      -2.84
O       1.49      12.16      -0.62
O       1.59       6.80      -0.99
O       2.85      10.80       0.59
O       0.33      10.34      -2.88
O      -1.66      11.87      -0.80
O      -0.99       8.95       3.08
O      -2.60      11.04       1.09
O       1.15       9.74       2.98
O      -1.52       6.46      -0.41
O      -2.85       7.82       0.83
C       2.48       6.79      -0.07
C      -0.18       9.31      -3.41
C       2.58      11.90      -0.01
C      -2.52      11.88       0.14
C       0.10       9.34       3.58
C      -2.59       6.72       0.23
