23

Zn      16.61      16.42      22.53
Zn      18.15      15.53      25.18
Zn      16.46      18.21      25.21
Zn      14.93      15.41      25.02
C      19.22      15.05      22.47
C      19.00      17.92      26.76
C      16.54      19.37      22.48
C      13.85      17.73      26.49
C      14.08      14.86      22.20
C      16.55      13.41      26.47
O      16.54      16.39      24.48
O      18.27      15.63      21.83
O      19.22      16.74      26.29
O      16.55      19.53      23.75
O      19.32      14.90      23.73
O      16.53      18.26      21.84
O      17.94      18.58      26.45
O      14.80      18.53      26.20
O      13.86      14.84      23.48
O      13.75      16.50      26.15
O      15.14      15.41      21.71
O      17.69      13.96      26.27
O      15.41      13.80      26.05
