17

Ni       7.43       9.68       4.66
C       6.20      10.23       1.99
N       6.50      10.76       3.19
H       9.68      10.40       3.90
C       6.05      12.00       3.49
O       9.22       9.60       3.47
C       5.73      10.09       7.03
H       9.61       8.78       3.88
O       8.04      11.38       5.70
O       8.35       8.56       6.25
H       6.28       7.18       4.30
H       7.82       7.29       3.95
C       9.21      11.90       5.67
C       4.52       9.39       5.19
O       6.95       7.70       3.77
C       9.18       7.62       6.06
N       5.71       9.71       5.74
