24

C       4.35       5.29       4.45
Zn       5.94       5.38       7.01
C      -0.88       3.58      10.92
Zn       0.70       3.49       8.36
C       6.39       6.37       4.24
H       7.05       3.36       8.08
C       1.16       2.50      11.12
H      12.29       5.52       7.29
C       6.33       2.56       6.33
C      11.57       6.31       9.04
Br       6.13       7.18       8.53
Br       0.90       1.69       6.84
N       6.15       3.36       7.57
N      11.39       5.52       7.79
N       5.51       5.70       5.01
N       0.27       3.17      10.36
O       3.85       4.77       7.41
O       9.08       4.10       7.96
O       2.78       3.47       8.92
O       8.02       5.40       6.45
C       3.80       3.80       8.24
C       9.03       5.08       7.13
C       5.03       2.90       8.43
C      10.27       5.97       6.94
