18

Al       5.78       8.72       8.67
Al       9.14       8.70       8.63
H       7.46       9.90       7.32
H       4.08       8.00      10.23
O       8.63       8.93      10.50
O       7.46       9.29       8.07
O       4.11       8.15       9.27
O       5.26      10.57       8.81
C       4.10       8.49       6.24
C       4.12      11.15       8.70
C       7.49       8.93      11.07
C       7.44       6.29       8.60
O       5.21       8.65       6.86
O       6.30       6.89       8.57
O       6.37       8.81      10.48
O       8.57       6.88       8.66
O       9.66       8.44       6.79
O       9.72      10.53       8.52
