10

Al       3.94      28.57      24.74
O       4.98      26.96      24.71
O       4.98      29.40      23.36
O       4.98      29.35      26.15
O       2.89      27.50      23.54
O       2.89      28.06      26.25
O       2.89      30.13      24.41
C       5.92      30.24      23.54
C       5.92      28.77      26.79
C       5.92      26.69      23.89
