10

Al       0.01      14.07       0.00
C       1.99      15.78      -1.13
C       1.99      14.19       2.04
C       1.99      12.24      -0.91
O       1.06      12.47      -0.09
O       1.06      14.95      -1.34
O       1.06      14.79       1.43
O      -1.04      13.03      -1.22
O      -1.04      13.54       1.51
O      -1.04      15.64      -0.29
