12

Cu       8.09      12.41       1.04
N       6.96      11.64       2.76
C       6.71      12.39       3.84
C       6.47      13.28      -1.19
O       8.12      14.31       1.68
C      10.96      12.40       1.19
O       6.43      12.81      -0.00
C       8.77      10.45      -0.97
C       6.41      10.42       2.69
C       8.66      15.23       0.97
O       9.90      12.12       1.85
O       8.21      10.62       0.16
