13

C       9.33      32.69      18.08
Zn       7.57      33.19      15.70
C       5.18      35.09      15.67
C       9.45      32.00      13.69
C       8.68      35.99      16.52
C       8.97      35.50      14.42
C       4.49      33.07      15.69
N       8.14      32.42      17.43
N       5.62      33.80      15.68
N       8.13      32.25      14.05
N       8.49      34.99      15.57
C       7.39      31.71      13.07
C       7.46      31.59      18.24
