23

Zn       9.24      -1.59      24.64
Zn       9.24       1.59      24.64
Zn       7.63      -0.00      26.92
Zn      10.84      -0.00      26.92
O       9.24      -0.00      25.79
O      10.38      -0.00      28.84
O       8.10       0.00      28.84
O       9.24      -1.14      22.73
O       9.24       1.14      22.73
O       6.53      -1.59      26.58
O      11.95       1.58      26.58
O      11.96      -1.59      26.58
O       6.52       1.59      26.58
O      10.80       2.72      24.97
O       7.68      -2.72      24.96
O       7.67       2.72      24.96
O      10.81      -2.72      24.96
C       9.24      -0.00      29.41
C       9.24      -0.00      22.15
C       6.70      -2.56      25.77
C      11.78       2.56      25.77
C      11.79      -2.57      25.77
C       6.69       2.56      25.77
