36

Zn      -1.10      -2.92       8.36
C       0.11      -7.33       8.43
Zn      -1.41      -5.64       6.48
C       0.27      -3.75      10.94
C      -2.67      -0.31       9.19
Zn      -3.57      -4.13      10.16
C      -4.08      -1.13      10.69
C      -5.48      -3.16       8.04
C       1.62      -4.98       5.85
C      -2.97      -3.68       4.77
C      -5.34      -5.83      12.03
Zn      -3.88      -6.87       8.33
C      -1.55      -8.15       9.65
C      -4.10      -8.67       5.82
N      -2.03      -2.82       6.57
N      -0.75      -3.89      10.09
N      -2.38      -1.61       9.36
N      -2.01      -7.10       8.96
N      -4.49      -4.01       8.36
N       0.41      -4.71       6.39
N      -2.44      -3.98       5.98
N      -4.70      -5.64      10.87
N      -4.82      -6.79      10.12
N      -4.64      -5.16       7.65
N       0.58      -3.77       7.38
N      -2.53      -7.14       5.70
N      -1.71      -4.66      10.68
N      -3.26      -2.12      10.30
N      -1.00      -6.59       8.21
N      -3.52      -7.67       6.50
C      -2.28      -1.80       5.73
C      -5.54      -7.68      10.82
C      -5.73      -5.04       6.88
C       1.88      -3.47       7.45
C      -2.52      -7.80       4.54
C      -1.28      -5.03      11.89
