11

Zn       1.63       4.58       0.96
C       2.05       4.45       4.00
O       1.79       6.53       1.12
O      -0.14       4.25       0.16
C       2.80       7.00       1.78
C      -0.45       2.99       0.13
C       3.20       2.38      -0.24
C       1.00       2.72       3.31
N       3.24       3.69       0.06
C       4.41       4.35      -0.11
N       1.55       3.88       2.88
