18

Al       5.70       7.94      10.82
Al       2.36       7.94      10.85
H       4.06       7.42      12.48
H       7.38       8.44       9.18
C       4.05       6.05       9.35
C       7.34       9.82      12.32
C       4.00       9.66       9.16
C       7.39       6.21      12.50
O       2.87       9.31       9.64
O       6.27       6.70      12.16
O       5.20       6.42       9.71
O       8.47       9.29      12.13
O       5.14       9.17       9.48
O       8.53       6.56      12.06
O       6.20       9.45      11.92
O       2.92       6.58       9.57
O       4.04       7.93      11.65
O       7.38       7.94      10.02
