47

Zn      10.92       1.34      21.76
C       6.25       0.16      21.29
C      14.02       1.33      21.99
Zn      10.20      -1.83      21.49
C      12.81       6.13      20.65
Zn       9.93      -0.39      24.27
Zn      12.82      -0.97      23.16
N      11.72       5.23      20.31
H       6.36       3.26      19.85
H       5.80       1.78      19.02
N       6.72       1.49      20.89
H       4.90       2.42      20.44
H       6.72      -0.12      22.23
H       5.16       0.19      21.41
O      11.00      -0.50      22.66
H       6.52      -0.59      20.53
O      12.94       1.57      21.37
H      13.47       6.28      19.79
O      10.65       3.25      20.73
H      12.42       7.11      20.97
O      11.02       2.48      23.51
H      13.40       5.70      21.47
O      10.71       0.36      19.86
C      12.08      -1.55      25.97
O       8.75       1.19      21.90
O      11.57      -3.16      20.97
C      10.36       2.41      24.59
O       8.76      -2.86      22.44
H      12.22       3.96      21.84
C      10.89       5.60      19.17
O       8.26      -1.43      24.14
C       7.96       1.89      21.22
O       9.69       1.39      25.01
C       9.71      -0.22      19.36
O      10.84      -1.34      25.78
C      12.80      -3.27      21.29
O      14.20       0.38      22.84
O      13.00      -1.47      25.08
O      13.40      -2.62      22.21
O       9.25      -1.35      19.79
C      11.53       4.10      20.99
H      10.00       4.96      19.16
C       8.02      -2.44      23.39
H      10.59       6.66      19.27
H      11.44       5.48      18.23
H       8.24       2.89      20.85
C       5.90       2.28      20.00
