18

Al      -2.63       4.54       8.76
Al       0.72       4.54       8.75
H      -0.94       5.88       9.91
H      -4.34       3.00       7.96
O      -3.14       6.36       8.52
O      -5.48       4.27      10.61
O       0.13       2.72       8.62
O      -2.03       4.49       6.94
C      -4.27       6.94       8.58
C      -4.34       4.33      11.17
C      -1.00       2.13       8.69
C      -0.93       4.75       6.35
O      -2.12       2.69       8.92
O       0.21       4.84       6.90
O      -5.39       6.36       8.80
O      -3.23       4.56      10.58
O      -0.95       5.10       9.34
O      -4.31       3.94       8.18
