18

Al       3.24       4.71       8.74
Al       6.56       4.74       8.73
H       4.91       3.20       7.88
H       1.59       6.31       9.42
O       2.75       4.90       6.89
O       0.41       2.90       8.98
O       5.96       4.85      10.53
O       3.81       6.56       8.76
O       3.73       4.48      10.58
O       6.06       6.58       8.46
C       1.61       4.89       6.30
C       1.52       2.31       8.84
C       4.86       4.62      11.16
C       4.94       7.14       8.64
O       0.49       4.71       6.90
O       2.66       2.88       8.73
O       4.90       4.13       8.15
O       1.58       5.35       9.31
