10

Al       4.46      11.66       6.97
O       5.52      12.23       5.48
O       5.53      10.07       7.16
O       5.56      12.57       8.23
O       3.37      11.06       5.46
O       3.35      13.20       7.11
O       3.37      10.66       8.18
C       6.49       9.85       7.98
C       6.50      11.66       4.88
C       6.52      13.42       8.01
