20

Zn      10.56       9.59       9.85
Zn       7.75       9.59       9.85
C       9.15       9.58       7.23
C      13.29      10.41      10.66
C       5.02       8.77       9.02
C      13.29       8.77       9.02
C       5.01      10.41      10.66
C       9.15       9.60      12.47
C       9.15       6.96       9.75
C       9.16      12.22       9.78
N      12.61       9.59       9.85
N       5.70       9.59       9.84
O      10.29       9.58       7.81
O       8.02       9.60      11.89
O      10.29       9.60      11.89
O       8.02       9.58       7.81
O      10.29       7.53       9.80
O       8.02      11.65       9.84
O      10.29      11.65       9.84
O       8.01       7.53       9.80
