36

Zn       4.65       0.44      11.84
Zn       1.93       3.98      11.84
Zn       2.17       1.37      13.79
Zn       4.39       3.08       9.89
C       3.77      -2.29      12.93
C       7.51       0.58      10.75
C       1.13       5.47       9.25
C       0.71       5.14      14.43
C      -0.19       0.62      11.99
C       5.73       5.16      11.70
C       2.62       1.10       8.41
C       4.54       2.55      15.27
C      -0.23       2.32      10.62
C       4.10       5.64      13.06
C       2.75      -0.65       9.76
C       6.19       1.97      13.93
C       2.77       4.90       7.89
C       0.83       3.41      15.79
C       2.07      -1.69      14.19
C       7.36       2.38       9.49
N       3.81      -0.96      13.07
N       4.80       4.22      11.51
N       0.96       1.28      12.17
N       3.19       1.50       9.57
N       4.01       2.11      14.12
N       0.93       2.34      11.31
N       3.77       4.52      12.37
N       6.20       0.88      10.61
N       3.27       0.42      10.39
N       5.03       1.76      13.29
N       3.10       4.48       9.13
N       1.15       2.99      14.55
N       2.75      -0.57      13.86
N       6.11       2.01       9.82
N       2.07       4.84       9.98
N       1.07       4.07      13.70
