24

Al       5.12       4.44      13.79
Al       3.33       7.11      13.89
Al       1.91       4.47      13.90
O       4.32       3.30      12.36
O       5.61       5.66      12.31
O       4.61       7.67      12.66
O       2.09       7.40      12.47
O       0.97       5.42      12.52
O       2.07       3.14      12.62
O       4.47       3.32      15.22
O       5.74       5.68      15.17
O       4.42       7.51      15.34
O       1.91       7.44      15.11
O       0.90       5.42      15.18
O       2.20       3.26      15.29
O       3.43       5.35      13.85
H       7.04       3.44      12.87
O       6.66       3.59      13.75
C       5.29       6.83      11.96
C       3.17       2.97      11.97
C       5.27       6.66      15.81
C       1.30       6.53      11.97
C       3.37       3.07      15.80
C       1.20       6.55      15.70
