15

Cu       3.13       3.36      24.99
Cu       1.65       4.26      22.33
Cu       3.66       1.79      22.31
C       0.99       3.11      19.71
C       4.90       1.26      26.00
C       2.47       1.46      19.68
N       1.53       5.32      23.83
N       2.10       4.89      25.00
N       4.24       1.88      25.01
N       4.58       1.28      23.82
N       2.65       2.16      20.81
N       1.74       3.19      20.83
C       1.85       5.80      25.96
C       0.93       6.50      24.07
C       5.46       0.29      24.09
