23

Zn      17.65       5.08      31.98
Zn      14.47       4.91      31.80
Zn      16.18       2.20      31.82
Zn      15.96       4.03      34.49
C      16.04       7.07      30.53
C      13.69       2.51      30.27
C      18.78       2.75      30.53
C      16.06       1.06      34.54
C      18.44       5.59      34.79
C      13.35       5.40      34.49
O      16.07       4.04      32.53
O      17.19       6.66      30.89
O      13.47       3.71      30.62
O      17.84       1.93      30.80
O      14.91       6.53      30.79
O      18.85       3.97      30.89
O      14.67       1.77      30.62
O      16.15       0.87      33.28
O      17.46       4.98      35.33
O      15.97       2.18      35.15
O      18.66       5.72      33.54
O      13.26       5.50      33.22
O      14.30       4.86      35.15
