23

Zn      17.46       5.02      31.91
Zn      14.29       4.84      31.71
Zn      15.99       2.12      31.76
Zn      15.78       3.95      34.42
C      15.84       7.00      30.44
C      13.51       2.43      30.19
C      18.60       2.68      30.48
C      15.89       0.99      34.48
C      18.27       5.52      34.71
C      13.16       5.30      34.40
O      15.89       3.96      32.45
O      17.00       6.59      30.83
O      13.30       3.64      30.52
O      17.65       1.86      30.73
O      14.72       6.45      30.69
O      18.67       3.90      30.84
O      14.48       1.69      30.56
O      15.97       0.80      33.22
O      17.29       4.90      35.26
O      15.82       2.11      35.09
O      18.47       5.67      33.46
O      13.07       5.39      33.14
O      14.13       4.79      35.08
