14

O       9.84      11.84      18.11
O      11.86       9.83      18.11
Zn      11.85      11.85      17.96
C       9.27      11.85      19.26
O       9.84      11.86      20.41
C      11.85       9.27      19.26
O      11.84       9.83      20.40
C      14.44      11.85      19.26
C      11.85      14.44      19.26
O      13.87      11.84      20.40
Zn      11.85      11.85      20.56
O      11.86      13.87      20.41
O      13.87      11.86      18.11
O      11.84      13.87      18.11
