18

Al       7.80      12.84       4.60
O       9.56      12.07       4.81
Al      11.31      12.86       4.67
O       6.05      13.64       4.46
H       9.56      11.14       5.12
H       6.04      14.56       4.15
C       9.54      14.68       6.13
C       6.03      11.02       3.14
C       9.58      14.01       2.57
C       6.07      11.70       6.70
O      10.70      13.78       3.10
O       7.19      11.93       6.17
O       8.41      14.31       5.67
O      11.92      11.39       3.60
O       8.42      13.72       3.01
O      11.93      11.98       6.26
O       7.19      11.40       3.51
O      10.70      14.30       5.76
