10

Al       3.94      13.96      16.12
O       2.90      14.78      17.50
O       2.90      14.74      14.72
O       2.90      12.36      16.14
O       4.99      15.52      16.46
O       4.99      12.88      17.30
O       4.99      13.47      14.60
C       1.96      14.17      14.07
C       1.96      12.09      16.96
C       1.96      15.63      17.32
