18

Al       6.33       7.19       7.43
Al       3.01       7.16       7.45
H       4.65       8.36       6.09
H       7.94       5.69       8.36
O       6.96       8.97       7.09
O       9.02       7.17       5.63
O       3.49       5.29       7.26
O       5.86       7.73       9.22
O       5.71       5.41       7.77
O       3.67       7.16       9.23
O       9.15       9.01       7.67
C       8.04       9.57       7.40
C       7.94       6.80       5.05
C       4.64       4.77       7.51
C       4.74       7.54       9.80
O       6.81       6.67       5.62
O       4.67       7.70       6.79
O       7.98       6.62       8.07
