18

Al       2.74      19.11      17.02
O       3.32      20.32      15.61
Al       6.05      19.16      17.11
O       6.54      18.34      18.81
O       2.23      17.78      15.70
O       5.44      20.63      18.16
O       4.40      18.31      17.13
O       1.10      19.94      16.93
H       4.45      17.47      16.64
H       1.11      20.87      16.65
C       4.31      20.94      18.68
C       1.07      17.29      15.48
C       4.46      20.52      15.06
C       1.08      17.85      19.10
O       5.59      20.11      15.48
O       2.14      17.94      18.42
O       3.22      20.38      18.38
O       0.01      17.64      16.12
