18

Al      -2.60       5.73       8.37
Al       0.72       5.73       8.37
H      -0.96       4.24       7.44
H      -4.25       7.22       9.30
O      -3.21       3.91       8.21
O      -5.31       5.64       6.55
O       0.23       7.58       8.09
O      -2.12       5.39      10.19
C      -4.31       3.32       8.44
C      -4.22       5.95       5.97
C      -0.90       8.14       8.30
C      -0.99       5.51      10.78
O      -2.00       7.55       8.52
O       0.10       5.82      10.19
O      -5.44       3.88       8.65
O      -3.09       6.07       6.55
O      -0.94       5.14       7.78
O      -4.27       6.31       8.96
