11

Zn       9.88       1.94      14.50
C       9.78       0.11      16.90
C      10.10       4.32      13.60
C       8.20       1.08      12.27
N       8.19       1.19      13.61
N       9.67       1.39      16.52
O       9.89       3.93      14.82
C       7.21       0.58      14.30
C      11.54      -0.20      13.82
O      11.60       1.07      14.10
C       9.74       2.36      17.46
