23

Zn      -4.48       8.05       2.02
O      -7.16       8.20      -1.56
O      -3.14       6.87       2.87
Zn      -2.81       6.97      -0.56
Zn      -4.33       9.74      -0.72
O      -6.73       5.99       0.95
Zn      -5.98       6.99      -0.57
O      -1.59       8.27      -1.40
O      -6.40       7.67       2.41
O      -3.10       9.74      -2.26
O      -6.09      10.22      -1.44
C      -2.26       6.17       2.25
C      -7.06       6.66       1.99
C      -1.95       9.18      -2.23
C      -4.48       5.13      -2.18
C      -4.13      11.01       1.89
C      -7.04       9.45      -1.77
O      -1.94       6.25       1.03
O      -5.57       5.75      -2.02
O      -4.41       9.96       2.54
O      -4.39       7.95       0.06
O      -3.33       5.43      -1.71
O      -3.92      11.12       0.64
