14

Zn       2.07      10.95      35.60
Zn       4.67      10.91      35.65
C       3.38       8.39      35.59
C       3.37      10.96      33.04
C       3.44      13.46      35.64
C       3.27      10.91      38.21
O       2.28       8.98      35.86
O       4.49       8.98      35.31
O       4.44      11.31      33.62
O       2.28      10.61      33.59
O       4.49      12.83      36.00
O       2.33      12.91      35.31
O       2.20      11.28      37.63
O       4.34      10.51      37.66
