21

Mn       2.77       0.99       9.03
Mn       5.54      -0.99       9.03
Mn      -0.00      -0.00       7.32
C       0.63       0.34      11.52
C       3.41      -2.82       7.22
C       6.18       2.48       6.64
C      -0.64      -0.34      11.52
C       4.91       2.82       7.22
C       2.13      -2.48       6.64
N       0.98       0.53      10.21
N       3.75      -1.77       8.05
N       6.52       1.25       7.13
N      -0.98      -0.53      10.21
N       4.56       1.77       8.05
N       1.79      -1.25       7.13
N      -0.00      -0.00       9.48
N       2.77      -0.88       7.96
N       5.54       0.88       7.96
Cl       1.38       2.03       7.29
Cl       4.15      -0.00      10.80
Cl      -1.39      -2.03       7.29
