11

C       1.43      25.65      11.10
C      -0.62      30.08       8.99
O      -2.82      27.16      11.55
Cd      -1.17      27.00       9.91
O      -1.86      25.25       8.52
C      -0.73      25.13       7.91
N      -0.11      28.87       9.22
C      -3.55      27.96      10.87
C       1.26      28.97       9.10
N       0.31      26.27      11.46
C       0.37      26.48      12.83
