23

Zn      23.21      18.72      17.00
Zn      21.67      19.68      14.34
Zn      19.99      18.66      16.86
Zn      21.47      21.46      16.95
O      21.60      19.62      16.29
O      24.41      18.16      15.55
O      20.16      18.75      13.46
O      20.46      17.08      17.92
O      23.32      18.86      13.66
O      22.74      17.11      18.03
O      19.01      18.02      15.28
O      18.75      19.73      17.94
C      24.29      18.30      14.28
O      22.97      21.82      18.15
O      19.83      21.74      17.99
C      21.59      16.61      18.29
C      23.97      21.13      18.53
C      21.57      22.65      14.27
O      21.48      22.82      15.54
C      19.20      18.14      14.03
O      24.22      19.92      18.19
O      21.66      21.52      13.66
C      18.87      20.96      18.28
