20

Zn       9.70       8.89      14.53
Zn       6.93       8.86      14.50
N       4.88       8.85      14.47
N      11.75       8.88      14.59
O       9.44      10.93      14.73
O       7.22      10.90      14.27
O       7.16       9.13      16.50
O       9.39       8.70      16.56
O       7.22       6.82      14.69
O       9.45       6.87      14.27
O       9.47       9.09      12.48
O       7.24       8.63      12.49
C       8.32      11.49      14.50
C       8.26       8.93      17.11
C       8.34       6.27      14.46
C       8.35       8.86      11.91
C       4.20       9.63      15.34
C       4.21       8.08      13.61
C      12.40       9.72      15.40
C      12.46       8.04      13.80
