23

Cd       9.23       2.01      27.87
Cd       8.87       5.40      29.83
C       9.89       0.53      25.60
C       8.36       6.93      32.12
N      11.17       5.32      30.20
N       6.53       5.31      29.65
N       6.95       2.41      27.65
N      11.57       2.23      28.26
O       8.91       6.64      27.79
O       9.19       0.85      29.94
O       8.76       3.02      30.20
C       9.14       5.63      27.04
O       9.42       1.73      25.58
O       8.64       5.68      32.15
C       8.99       1.86      30.69
C      12.04       6.03      29.45
C      11.65       4.49      31.14
C       5.77       4.78      30.63
C       5.93       5.97      28.65
C       6.12       1.90      28.57
C       6.44       3.08      26.60
C      12.16       1.36      29.09
C      12.34       3.03      27.50
