23

Zn      20.05       5.90      14.54
Zn      21.71       3.34      15.80
Zn      19.08       2.81      14.21
Zn      18.99       4.15      17.06
C      22.94       5.58      14.33
C      18.43       4.98      12.27
C      18.35       6.94      16.70
C      21.45       1.16      13.81
C      21.35       3.59      18.66
C      17.68       1.60      16.51
O      19.96       4.11      15.36
O      22.97       4.75      15.30
O      21.91       6.21      13.90
O      18.29       3.80      12.74
O      18.93       5.98      12.88
O      17.94       5.80      17.09
O      19.28       7.19      15.86
O      20.30       1.51      13.37
O      22.08       1.70      14.78
O      20.29       4.28      18.55
O      21.94       2.96      17.71
O      17.93       2.53      17.35
O      17.95       1.61      15.26
