20

Zn       0.01      15.85       1.38
Zn      -0.01      15.85      -1.38
C       1.82      13.95       0.02
C      -1.82      13.95      -0.02
C      -1.82      17.74      -0.02
C       1.82      17.74       0.02
C      -1.29      15.85       4.03
C       1.03      15.85       4.18
C       1.29      15.85      -4.03
C      -1.03      15.85      -4.18
N      -0.08      15.85       3.43
N       0.08      15.85      -3.43
O       1.45      14.39       1.15
O       1.44      14.40      -1.12
O      -1.45      14.39      -1.15
O      -1.44      14.40       1.12
O      -1.45      17.30      -1.15
O      -1.44      17.29       1.12
O       1.45      17.30       1.15
O       1.44      17.29      -1.12
