10

Al       0.04       6.93      12.02
O       1.13       8.22      11.09
O       1.13       5.48      11.37
O       1.13       7.09      13.60
O      -1.04       7.10      10.44
O      -1.04       8.21      12.95
O      -1.04       5.48      12.66
C       2.06       4.84      12.02
C       2.06       7.97      13.83
C       2.06       7.98      10.21
