36

Zn      -0.46       5.89      13.20
Zn      -2.98       7.69      16.50
Zn      -0.21       8.55      14.94
Zn      -3.21       4.95      14.67
C       1.93       5.24      14.55
C       1.04       7.68      11.13
C      -4.34       6.31      12.20
C      -1.41       5.85      18.20
C      -2.21      10.21      13.43
C       0.07      10.27      17.49
C      -2.16       2.18      13.64
C      -1.79       9.80      18.58
C      -2.44       6.94      11.27
C      -0.30       2.85      12.68
C      -1.68       3.95      17.10
C       2.27       7.16      15.59
C      -4.06       9.66      14.51
C       1.26       9.55      12.28
C      -6.15       5.48      15.12
C      -6.01       7.34      16.31
N       0.73       5.78      14.85
N      -0.64       9.41      16.74
N      -2.17       3.52      13.62
N      -1.80       9.11      17.42
N      -1.00       3.94      13.02
N      -2.00       4.96      16.27
N       0.94       6.97      15.49
N      -2.20       6.62      12.56
N      -3.11       8.76      14.82
N       0.78       8.59      13.11
N      -4.90       5.58      15.64
N      -4.81       6.74      16.37
N       0.66       7.43      12.39
N      -3.37       6.22      13.13
N      -1.97       9.10      14.16
N      -1.83       6.13      16.95
