10

Al       4.02       8.62       9.96
C       6.06       8.59       7.92
C       6.06      10.41      10.95
C       6.06       6.88      11.01
O       5.08       7.66      11.21
O       5.08       8.02       8.50
O       5.08      10.19      10.16
O       2.94       7.05      10.17
O       2.94       9.59      11.22
O       2.94       9.23       8.49
