20

O      10.38      19.19       1.67
Zn       8.85      20.15       4.35
O       7.73      20.74       2.74
Zn       9.27      17.89       2.79
O       7.29      18.91       5.01
O      10.83      17.72       4.18
C       7.30      17.64       4.92
C      10.81      18.25       5.34
C      10.83      20.28       2.14
C       7.28      19.91       1.88
C       9.02      21.94       6.69
C       9.09      15.07       1.95
C       7.64      22.82       5.04
C      10.47      16.30       0.54
N       8.47      21.84       5.47
N       9.65      16.25       1.61
O      10.56      20.77       3.28
O       7.56      18.67       1.83
O       8.06      16.96       4.14
O      10.05      19.22       5.70
