13

Zn       3.02       2.21       6.43
C      -0.00       1.98       6.47
C       4.26      -0.45       7.01
C       2.86       4.23       4.23
C       4.22       2.61       9.18
N       1.12       2.63       6.86
N       3.50       3.16       4.74
N       3.44       0.28       6.23
N       4.13       3.01       7.90
C       0.69       3.76       7.52
C       4.62       2.98       3.95
C       2.97      -0.60       5.27
C       4.95       4.12       7.79
