10

Al       3.09      17.55      10.19
O       1.97      16.94      11.64
O       1.98      19.11      10.00
O       1.97      16.60       8.94
O       4.20      18.11      11.65
O       4.19      16.00       9.94
O       4.20      18.53       8.98
C       1.01      19.31       9.18
C       1.01      15.79       9.18
C       1.01      17.54      12.22
