20

Zn       9.94       7.87       7.69
Zn       9.11       5.22       7.74
C       9.54       6.60      10.31
C       7.07       7.41       7.60
C       9.46       6.59       5.10
C       7.02       3.12       8.12
C       9.01       2.31       7.23
C      11.57      10.15       6.69
C      10.47      10.62       8.68
C      11.94       5.63       7.44
N       8.28       3.34       7.70
N      10.76       9.75       7.69
O       9.61       7.73       9.71
O       9.47       5.46       9.74
O       7.95       8.30       7.37
O       7.30       6.22       8.00
O      10.12       7.53       5.65
O       8.85       5.65       5.73
O      11.69       6.80       7.90
O      11.07       4.70       7.30
