18

Al      -2.82       4.68       8.73
Al       0.48       4.71       8.72
H      -1.18       6.16       9.74
H      -4.53       3.11       8.01
O      -3.30       6.49       8.35
O      -5.66       4.38      10.55
C      -4.39       7.09       8.57
C      -4.53       4.54      11.12
C      -1.22       2.29       8.76
C      -1.13       4.85       6.32
O      -0.12       2.88       8.54
O      -2.18       4.47       6.93
O      -2.33       2.84       9.05
O      -0.00       5.08       6.88
O      -5.51       6.53       8.84
O      -3.44       4.85      10.53
O      -1.17       5.29       9.30
O      -4.48       4.07       8.14
