23

Zn      12.92      14.19      10.12
Zn      13.02      12.41       7.45
Zn      11.42      15.17       7.46
Zn      14.65      15.18       7.60
C      12.86      11.25      10.17
C      10.57      12.83       5.88
C      10.34      15.63      10.17
C      13.07      17.25       6.21
C      15.46      15.67      10.38
C      15.62      12.86       6.12
O      13.00      14.25       8.16
O      12.96      12.35      10.82
O      11.59      12.12       6.14
O      10.27      15.84       8.91
O      12.79      11.12       8.90
O      11.27      15.02      10.80
O      10.31      13.99       6.35
O      11.91      16.71       6.34
O      15.76      15.61       9.15
O      14.15      16.88       6.75
O      14.40      15.21      10.93
O      14.75      12.06       6.58
O      15.72      14.11       6.35
