20

Zn       8.25       7.78       9.85
Zn       5.56       7.76       9.85
C       6.89       5.18       9.77
C       2.83       7.71      11.00
C      10.98       8.16       8.76
C       2.83       7.82       8.69
C      10.98       7.37      10.94
C       6.89      10.36       9.88
C       6.92       7.74      12.48
C       6.92       7.79       7.22
N       3.51       7.77       9.85
N      10.30       7.77       9.85
O       7.94       5.80       9.40
O       5.82       9.78       9.49
O       7.94       9.76      10.28
O       5.82       5.74      10.19
O       8.01       7.43      11.89
O       5.82       7.49       7.80
O       8.00       8.13       7.81
O       5.82       8.02      11.90
