20

Zn       7.80       7.73       9.71
Zn       7.74      10.56       9.66
C       7.67       9.07       7.10
C       5.15       9.18       9.77
C       8.63       5.08      10.65
C       8.58      13.22      10.50
C       7.66       9.12      12.27
C       6.96       4.86       9.05
C       7.05      13.41       8.76
C      10.35       9.20       9.80
N       7.74       5.66       9.82
N       7.77      12.62       9.59
O       7.48       7.96       7.71
O       8.02      10.16       7.67
O       5.74       8.08      10.02
O       5.70      10.27       9.40
O       8.09       8.06      11.70
O       7.36      10.20      11.66
O       9.83       8.09       9.48
O       9.74      10.30      10.04
