13

C       3.99       3.13       4.97
O       2.73       3.17       5.10
Co       3.22       5.49       5.47
C       2.13       5.19       7.76
C       3.00       5.96       2.56
N       4.30       7.14       5.89
C       3.84       8.10       6.72
C       5.51       7.30       5.33
O       3.33       4.79       7.78
C       0.98       6.07       3.69
N       2.33       5.94       3.73
O       1.62       5.69       6.68
O       4.69       4.22       4.99
