10

Al       3.05      17.63      10.22
O       2.00      16.95      11.69
O       2.00      19.24      10.08
O       2.00      16.71       8.90
O       4.12      18.23      11.69
O       4.11      16.05      10.00
O       4.11      18.61       8.97
C       1.06      19.44       9.24
C       1.06      15.87       9.15
C       1.06      17.58      12.28
