20

Zn       5.92       5.56       6.02
Zn       3.11       5.51       5.91
C       4.56       2.93       5.95
C      10.10       4.94       6.89
C      10.08       6.10       4.95
C       8.68       6.13       4.99
C       4.47       5.48       8.58
C       8.71       4.97       6.93
C       4.46       8.13       5.99
C       4.58       5.60       3.36
N      10.82       5.49       5.92
N       7.97       5.56       6.00
O       5.68       3.52       5.76
O       3.44       3.51       6.10
O       5.61       5.27       8.04
O       3.37       5.69       7.98
O       5.58       7.58       6.31
O       3.39       7.51       5.71
O       5.67       5.85       3.99
O       3.44       5.35       3.86
