23

Zn      12.91      14.19      10.10
Zn      13.07      12.41       7.43
Zn      11.41      15.19       7.46
Zn      14.57      15.23       7.54
C      12.98      11.24      10.17
C      10.58      12.78       5.90
C      10.31      15.61      10.19
C      13.02      17.28       6.12
C      15.40      15.75      10.36
C      15.69      12.88       6.12
O      12.99      14.24       8.15
O      12.91      12.36      10.82
O      11.53      12.01       6.26
O      10.22      15.72       8.92
O      13.07      11.11       8.90
O      11.30      15.06      10.83
O      10.41      13.99       6.27
O      11.88      16.76       6.42
O      15.54      15.92       9.11
O      14.17      16.82       6.47
O      14.48      15.08      10.93
O      14.70      12.08       6.38
O      15.79      14.09       6.52
