19

Fe       3.61      11.72      11.90
C       1.96      14.08      11.46
C       5.27      14.08      12.35
C       2.63      13.00       9.52
C       4.60      13.00      14.29
C       1.29      11.78      13.93
C       5.94      11.78       9.88
S       0.04      11.85      14.95
S       7.19      11.85       8.86
N       4.57      10.35      12.94
N       2.65      10.35      10.87
N       2.67      13.09      10.87
N       4.56      13.09      12.94
C       5.92      10.42      13.09
C       1.31      10.42      10.72
N       5.02      11.73      10.63
N       2.21      11.73      13.18
C       3.92       9.38      13.61
C       3.31       9.38      10.20
