20

Tb      -2.26       7.94      16.69
Tb      -6.98       8.37      17.45
C      -0.22       7.36      19.25
O      -5.64       8.32      15.67
O      -3.55       8.43      14.86
O      -5.82       6.48      18.03
O      -3.69       6.30      17.32
O      -3.41       9.57      17.74
O      -5.56       9.93      18.23
O      -1.02       6.08      15.98
O       0.91       7.20      16.13
O       1.18      10.13      16.43
O      -0.91       9.55      15.85
C      -4.81       8.56      14.72
O       1.01       7.70      19.22
O      -1.13       7.99      18.62
C      -4.78       5.80      17.74
C       0.25       6.13      15.90
C      -4.44      10.30      17.73
C       0.15      10.22      15.69
