36

Zn      15.50      -3.21      10.05
Zn      17.92      -5.21       6.69
Zn      15.33      -6.16       8.44
Zn      18.03      -2.23       8.12
C      16.82      -5.06      12.03
C      19.20      -3.54       4.41
C      20.09      -5.67       8.65
C      12.46      -3.88      10.42
C      16.56      -9.02       7.66
C      15.74      -0.92       6.73
C      18.76      -0.83      10.70
C      14.42      -6.28       5.63
C      18.26      -8.31       6.44
C      14.06      -1.57       8.04
C      17.24      -1.66      12.05
C      16.03      -5.22       4.57
C      20.23      -3.65       9.58
C      12.38      -5.77       9.25
C      16.76      -6.97      10.91
C      19.23      -1.53       5.33
N      16.54      -4.79      10.74
N      18.87      -3.67       5.70
N      18.96      -4.99       8.38
N      13.72      -4.23      10.10
N      16.52      -7.68       7.63
N      16.16      -1.95       7.48
N      17.74      -1.26       9.93
N      15.07      -5.52       6.53
N      17.58      -7.24       6.86
N      15.13      -2.36       8.28
N      16.79      -1.78      10.78
N      16.08      -4.87       5.88
N      19.05      -3.75       8.94
N      13.66      -5.40       9.37
N      16.50      -5.96      10.05
N      18.89      -2.42       6.28
