9

Cl      11.57      12.41      25.19
Zn      12.29      14.23      24.16
N      11.83      15.82      25.41
N      14.37      14.14      24.21
C      11.16      15.63      26.56
C      15.02      13.37      25.10
C      12.27      17.05      25.09
C      15.08      14.83      23.30
Cl      11.90      14.92      22.10
