18

O       4.64       3.08       6.84
Al       5.17       4.39       5.51
O       3.50       5.19       5.58
Al       1.83       4.37       5.50
O       6.84       3.57       5.43
O       1.31       5.67       4.17
H       3.49       5.98       6.14
O       2.37       3.04       6.78
H       6.83       2.77       4.87
O       5.71       5.72       4.23
C       3.51       2.89       3.60
O       4.64       3.23       4.07
C       6.84       5.86       7.41
O       1.30       5.53       6.94
C       3.50       2.72       7.26
C       6.84       6.04       3.75
O       5.70       5.53       6.96
O       2.37       3.23       4.05
