11

Zn       4.04       1.30       1.20
N       4.26      -0.16       2.62
C       6.14       2.28      -0.34
N       4.22       2.93       2.47
O       2.49       1.52       0.07
C       5.40      -0.88       2.67
C       3.30      -0.38       3.55
O       5.87       1.26       0.44
C       5.44       3.22       2.94
C       1.32       1.54       0.64
C       3.17       3.66       2.89
