13

N       7.14      16.44      13.14
Zn       5.18      16.49      12.74
C       4.13      13.63      12.66
C       4.13      17.91      10.34
N       4.45      17.94      13.97
C       4.13      19.25      13.86
C       4.37      14.27      14.71
C       8.26      16.60      12.41
C       4.44      15.82       9.84
N       4.63      16.76      10.84
C       4.33      17.66      15.31
C       7.58      16.15      14.42
N       4.51      14.69      13.40
