9

C       0.44       4.27       9.94
Zn      -2.17       3.33       8.70
I      -3.46       5.36       9.60
I      -2.61       2.26       6.43
C      -2.89       2.21      11.41
N      -2.36       1.89      10.22
C      -1.96       0.62       9.99
N      -0.10       3.68       8.86
C       0.71       3.24       7.87
