23

Zn      18.54      12.56       9.79
Zn      16.95      11.53       7.25
Zn      20.15      11.53       7.20
Zn      18.49      14.32       7.10
C      15.98      11.11      10.00
C      18.54       9.42       5.92
C      21.10      11.11       9.99
C      21.07      13.86       5.67
C      18.52      15.52       9.79
C      15.96      13.84       5.69
O      18.56      12.49       7.83
O      16.96      11.70      10.58
O      17.41       9.91       6.25
O      21.26      10.96       8.73
O      15.83      10.94       8.75
O      20.12      11.69      10.57
O      19.70       9.89       6.19
O      21.27      12.64       6.03
O      18.50      15.69       8.52
O      20.09      14.59       6.00
O      18.54      14.42      10.42
O      15.85      12.63       6.08
O      16.90      14.65       5.99
