10

Al       3.94      35.61      12.34
O       5.00      36.20      13.82
O       5.00      36.61      11.09
C       5.90      35.49      14.41
C       5.90      37.47      11.41
C       1.92      33.88      11.20
O       2.88      34.72      11.01
O       2.88      34.91      13.78
O       2.88      37.21      12.23
O       5.00      34.04      12.10
