23

Zn      17.66       5.02      31.99
Zn      14.48       4.84      31.80
Zn      16.18       2.14      31.82
Zn      15.97       3.97      34.49
C      16.05       7.01      30.53
C      13.67       2.47      30.26
C      18.77       2.68      30.53
C      16.07       0.99      34.53
C      18.47       5.52      34.79
C      13.36       5.33      34.51
O      16.08       3.98      32.53
O      17.21       6.60      30.90
O      13.45       3.68      30.62
O      17.83       1.85      30.78
O      14.94       6.46      30.80
O      18.84       3.89      30.91
O      14.66       1.75      30.63
O      16.15       0.80      33.26
O      17.48       4.91      35.32
O      15.98       2.11      35.13
O      18.68       5.66      33.54
O      13.28       5.43      33.24
O      14.32       4.79      35.18
