11

Cu       8.04      13.80      13.80
C       5.78      14.23      11.94
C       7.35      12.71      11.16
N       9.17      14.07      15.44
N       6.91      13.52      12.15
O       7.18      15.55      14.10
C       7.79      16.45      13.38
O       8.89      12.05      13.49
C       8.29      11.15      14.21
C      10.29      13.36      15.65
C       8.72      14.88      16.43
