24

Al       4.94       2.98      28.23
Al       6.68       5.69      28.26
Al       8.16       3.08      28.26
H       3.07       1.82      29.04
C       6.84       1.53      30.13
C       6.83       1.55      26.37
C       4.71       5.33      26.35
C       8.83       5.17      26.44
C       4.71       5.30      30.17
C       8.82       5.20      30.08
O       5.70       1.81      29.66
O       5.48       6.16      29.61
O       9.12       4.06      29.59
O       4.37       4.20      26.81
O       8.01       6.02      26.93
O       7.96       1.79      26.93
O       5.69       1.86      26.81
O       5.48       6.19      26.94
O       9.14       4.04      26.95
O       6.61       3.93      28.26
O       4.37       4.17      29.71
O       8.01       6.04      29.56
O       7.98       1.80      29.58
O       3.41       2.14      28.19
