18

Al       3.83       5.05       7.36
Al       7.36       5.02       7.37
H       5.58       4.25       5.77
H       2.08       5.70       8.99
O       3.22       3.26       7.13
O       0.94       5.42       5.62
O       6.75       6.82       7.55
O       4.44       4.67       9.16
C       2.09       2.67       7.18
C       2.07       5.62       5.06
C       5.61       7.40       7.52
C       5.59       4.60       9.70
O       4.46       6.83       7.57
O       6.72       4.61       9.12
O       0.93       3.22       7.19
O       3.22       5.53       5.58
O       5.59       4.55       6.70
O       2.07       5.50       8.03
