23

Zn      19.94       8.27      23.66
Zn      23.20       8.33      23.83
Zn      21.44       7.33      26.30
Zn      21.64       5.57      23.60
C      21.58      10.33      22.41
C      23.90       8.83      26.60
C      18.86       8.69      26.32
C      21.52       4.43      26.27
C      19.21       5.95      22.08
C      24.24       6.06      22.38
O      21.55       7.39      24.34
O      20.47       9.70      22.40
O      24.32       8.57      25.43
O      19.60       7.79      26.83
O      22.61      10.08      23.12
O      18.89       9.11      25.11
O      22.74       8.60      27.06
O      21.79       5.49      26.93
O      20.37       5.43      22.11
O      21.17       4.34      25.06
O      18.79       6.94      22.77
O      24.23       7.34      22.48
O      23.48       5.25      22.99
