19

Fe      -0.00       0.00      14.84
N      -1.51       1.16      12.45
C       0.97       2.66      14.43
N       1.51      -1.16      17.24
N      -1.14      -1.58      14.42
N       1.14       1.58      15.26
N       1.38      -0.71      13.60
N      -1.38       0.71      16.09
C       2.02       1.71      16.28
C      -2.02      -1.71      13.41
C       2.52      -1.29      14.05
C      -2.52       1.29      15.63
C      -1.17       0.73      17.43
C       1.17      -0.73      12.26
C       0.00      -2.41      16.28
C      -0.00       2.41      13.40
N      -0.62       1.20      13.46
N       0.62      -1.20      16.23
C      -0.97      -2.66      15.25
