36

Ba       1.68       2.33       4.83
Ba       4.61       3.44       8.17
H       4.61       1.14       5.76
H       1.68       4.62       7.24
H       3.57       0.63       6.80
H       2.72       5.13       6.20
H      -1.17       3.65       4.62
H       1.46       2.11       8.37
H      -0.55       4.94       5.30
H       0.83       0.83       7.69
H      -0.41      -0.58       5.84
H       6.70       6.34       7.15
H      -0.34      -0.20       4.31
H       6.63       5.97       8.68
H       2.31       5.54       4.09
H       3.98       0.23       8.90
H       2.80       4.45       3.12
H       3.49       1.32       9.88
C       4.75       2.44       2.49
C       1.54       3.32      10.50
S       2.75       6.97      10.01
S       3.54      -1.20       2.98
O       3.85       1.48       6.30
O       2.44       4.28       6.69
O      -0.63       3.98       5.42
O       0.92       1.79       7.57
O       4.01       3.06       3.35
O       2.29       2.71       9.65
O      -0.08       0.14       5.20
O       6.37       5.62       7.80
O      -0.07       2.08       2.71
O       6.36       3.69      10.28
O       1.97       4.85       3.47
O       4.32       0.91       9.53
O       3.46       5.81       9.48
O       2.83      -0.05       3.52
