54

Zr      -1.77      15.62       1.45
Zr       1.76      17.68      -1.45
Zr      -1.78      17.67      -1.44
Zr       1.77      15.63       1.44
Zr      -0.00      14.61      -1.44
Zr      -0.00      18.69       1.44
H      -2.78      15.04      -1.13
H       2.77      15.04      -1.15
H      -0.01      19.86      -1.13
H       0.01      16.65       3.41
O      -2.49      13.57       0.97
O       2.49      16.54      -3.22
O       2.56      19.68      -0.91
O      -2.56      16.80       3.16
O      -3.93      17.34      -0.90
O       1.16      14.35       3.17
O       3.92      16.03       0.95
O      -1.16      18.87      -3.22
O      -1.35      14.54      -3.21
O      -1.41      20.34       0.97
O       1.41      18.79       3.16
O       1.34      12.92      -0.92
O      -2.57      19.68      -0.87
O       2.56      16.84       3.14
O       2.47      13.57       0.95
O      -2.48      16.52      -3.22
O      -3.93      16.04       0.96
O       1.11      18.86      -3.23
O       3.92      17.35      -0.90
O      -1.12      14.34       3.16
O      -1.43      18.77       3.15
O      -1.34      12.92      -0.88
O       1.34      14.58      -3.23
O       1.43      20.33       0.95
O       0.00      16.65       2.44
O      -0.01      18.95      -0.81
O       1.99      15.51      -0.81
O      -2.00      15.50      -0.81
O      -0.01      16.65      -1.80
O       0.00      14.96       0.60
O       1.47      17.50       0.60
O      -1.48      17.49       0.60
C      -2.20      12.74       0.05
C       2.20      15.39      -3.71
C       2.29      20.51       0.02
C      -2.29      17.96       3.64
C      -4.51      16.69       0.03
C       0.02      14.00       3.64
C       4.50      16.69       0.03
C      -0.02      19.20      -3.71
C      -2.20      15.37      -3.70
C      -2.28      20.52       0.05
C       2.28      17.98       3.63
C       2.19      12.73       0.02
