15

N       1.52       0.27      13.59
Cu       1.51       0.38      17.99
Cu       1.51       1.45      15.00
Cu       1.52      -1.69      15.59
N       1.50       2.66      16.39
N       1.52       2.20      17.68
N       1.51      -1.43      18.35
C       1.51       4.01      16.43
C       1.56      -3.57      17.85
N       1.53      -2.32      17.32
C       1.53      -2.12      19.51
C       1.55       0.44      12.25
C       1.55       3.26      18.51
C       1.52      -1.73      12.66
N       1.50      -1.08      13.84
