9

N       0.78      16.48       1.81
Hg      -0.86      17.83       3.07
N       0.71      18.84       4.69
C       1.31      16.96       0.67
C       1.19      15.29       2.28
Cl      -1.56      16.09       4.60
C       1.55      19.84       4.39
Cl      -1.22      19.58       1.49
C       0.73      18.32       5.92
