24

Al      12.34       8.01      13.02
Al      10.73       5.26      13.33
Al       9.16       7.83      13.33
O      13.13       6.86      14.40
O      12.08       4.84      14.52
O       9.54       4.98      14.81
O       8.35       6.93      14.80
O       9.43       9.23      14.51
O      11.41       9.02      11.55
O      12.83       6.74      11.55
O      11.80       4.74      11.90
O      13.82       8.92      12.85
H      14.14       9.05      11.94
C      12.95       5.71      14.91
C       8.71       5.82      15.32
C      10.60       9.60      14.91
C      12.49       5.58      11.20
C       8.41       5.59      11.72
C      10.22       9.19      11.18
O      11.71       9.23      14.42
O       9.29       4.79      12.21
O       8.10       6.73      12.20
O       9.16       9.00      11.89
O      10.72       7.02      13.23
