23

Zn      -2.91       8.78       0.67
O      -4.56       7.96      -0.01
Zn      -6.09       9.01       0.60
Zn      -4.66       6.13       0.68
Zn      -4.51       7.89      -1.97
O      -4.61       4.83      -0.80
O      -2.05       9.79      -0.79
O      -3.32      10.05       2.12
O      -2.78       8.61      -2.60
O      -7.26       7.93       1.77
O      -5.82       9.16      -2.70
O      -3.18       5.74       1.89
O      -7.16       9.63      -0.92
O      -1.72       7.42       1.44
O      -6.42       5.82       1.51
O      -4.87       6.09      -2.67
O      -5.48      10.58       1.61
C      -4.83       4.97      -2.04
C      -4.38      10.76       2.24
C      -2.06       9.50      -2.03
C      -7.30       6.66       1.90
C      -6.85       9.69      -2.16
C      -2.04       6.31       1.98
