10

Al       0.05      35.78      12.40
O      -1.00      34.89      11.07
O      -1.00      35.08      13.83
O      -1.00      37.38      12.29
O       1.12      34.22      12.11
O       1.12      36.81      11.18
O       1.12      36.32      13.89
C      -1.97      35.63      14.44
C      -1.97      37.63      11.50
C      -1.97      34.09      11.25
