14

O       0.94       3.61       6.51
Zn       3.79       3.91       8.67
O       1.60       5.52       8.60
O       4.56       5.75       8.05
O       2.89       4.63      10.25
O       5.07       2.92       7.57
Zn       2.30       4.99       6.69
O       3.18       6.73       6.54
O       3.82       3.80       5.89
O       2.17       2.72       8.19
C       1.16       2.73       7.42
C       1.88       5.31       9.82
C       4.18       6.73       7.35
C       4.76       3.07       6.33
