23

Zn      22.39       7.82       0.54
Zn      23.88      10.66       0.70
Zn      25.59       7.94       0.71
Zn      24.09       8.88      -1.96
C      21.29      10.14       2.01
C      26.38      10.34       2.25
C      23.99       5.83       2.02
C      26.69       7.48      -2.00
C      21.59       7.33      -2.26
C      23.97      11.84      -2.00
O      23.99       8.83      -0.00
O      21.19       8.92       1.64
O      25.40      11.06       1.89
O      25.13       6.34       1.75
O      22.24      10.95       1.75
O      22.85       6.26       1.65
O      26.60       9.13       1.89
O      26.79       7.35      -0.73
O      22.57       7.94      -2.79
O      25.74       8.04      -2.64
O      21.37       7.19      -1.01
O      23.88      12.00      -0.74
O      24.05      10.73      -2.63
