23

Zn       5.98       1.63       3.31
Zn       5.98      -1.63       3.31
Zn       3.66       0.00       1.80
C       4.87       2.47       0.70
Zn       3.70       0.00       4.91
C       4.87      -2.47       0.70
C       8.46       0.00       3.20
O       4.87       0.00       3.33
C       1.19      -0.00       3.34
O       5.67       2.68       1.68
O       5.67      -2.68       1.68
O       4.00       1.54       0.63
O       4.00      -1.54       0.63
O       1.75      -0.00       2.19
O       1.79       0.00       4.47
O       4.05       1.58       6.01
O       4.05      -1.58       6.01
C       4.93       2.50       5.93
C       4.93      -2.50       5.93
O       5.73       2.69       4.95
O       5.73      -2.69       4.95
O       7.90       1.14       3.25
O       7.90      -1.14       3.25
