19

Cd       2.38       5.30      14.78
Cd      -1.69       5.30      13.43
C       3.68       7.90      14.70
C       3.68       2.70      14.70
C       4.13       5.30      17.64
C       2.05       5.30      18.11
C       2.79       5.30      11.62
N      -0.93       3.49      12.19
C      -1.65       2.84      11.22
N      -0.93       7.11      12.19
C      -1.65       7.76      11.22
C       0.17       2.74      12.34
N       2.88       5.30      17.07
C       0.17       7.86      12.34
Cl      -0.10       5.30      15.45
O       4.23       6.72      14.68
O       4.23       3.87      14.68
O       1.91       5.30      12.54
O      -3.33       5.30      11.78
