13

C       2.92      13.35      26.89
N       4.74      14.38      30.15
C       1.83      13.37      32.03
C       1.50      12.40      28.23
C       0.50      14.97      31.39
C       5.36      14.97      31.19
C       2.84      17.74      29.61
N       2.39      13.44      28.13
N       2.62      16.62      28.90
Zn       2.87      14.75      29.54
C       5.57      13.36      29.74
C       2.23      17.06      27.64
N       1.69      14.40      31.11
