23

Zn      19.90       9.62       0.81
Zn      20.60      11.12      -1.91
Zn      18.69      12.52       0.30
Zn      21.82      12.24       0.81
O      20.25      11.37      -0.00
O      20.01       8.16      -0.50
O      19.26      12.10      -2.96
O      17.26      11.60       1.29
O      20.49       9.23      -2.45
O      18.14       9.53       1.66
O      17.93      13.07      -1.43
O      19.13      14.16       1.29
O      22.57      11.07       2.20
O      21.37      13.95       1.66
O      21.24       9.26       2.20
O      22.36      11.79      -2.45
O      23.24      12.58      -0.50
C      20.25       8.19      -1.75
C      18.27      12.82      -2.63
C      17.21      10.41       1.75
C      20.25      14.56       1.75
C      22.23       9.93       2.63
C      23.29      12.34      -1.75
