18

Al       4.37       0.02       0.05
Al       1.05       0.03       0.08
H       2.69      -1.35      -0.97
H       6.02       1.76      -0.14
O       1.68       1.09       1.53
O       3.76       1.66      -0.83
O       4.86      -0.67      -1.70
O       3.89       0.68       1.78
O       5.00      -1.55       0.88
O       1.52       1.44      -1.18
O       2.71      -0.78      -0.19
O       7.20      -1.33       1.34
O       7.08      -1.03      -1.43
O       6.02       0.86       0.22
C       2.66       1.97      -1.40
C       2.77       1.14       2.18
C       6.07      -1.91       1.48
C       6.01      -1.05      -2.11
