23

Zn       3.93       7.85       8.76
O       5.69       7.93       7.89
Zn       3.22       6.36      11.47
O       3.58       6.10       9.56
Zn       5.14       4.95       9.27
O       3.81       9.31      10.05
Zn       2.02       5.23       8.76
O       5.90       4.39      11.01
O       6.57       5.87       8.30
O       3.35       8.23      12.01
O       2.59       8.22       7.35
O       4.69       3.31       8.30
O       4.57       5.37      12.55
O       1.47       5.67      12.01
O       1.25       6.40       7.35
O       0.58       4.91      10.05
O       2.46       3.54       7.89
C       6.61       7.05       7.82
C       5.58       4.63      12.23
C       3.58       9.28      11.31
C       0.54       5.14      11.31
C       1.58       7.56       6.89
C       3.58       2.91       7.82
