23

Zn      -1.55      15.17       0.59
Zn       0.16      16.11      -1.94
Zn       1.61      15.14       0.75
Zn       0.07      17.96       0.69
C       0.19      19.07      -2.02
C      -0.06      13.14       2.09
C      -2.46      14.77      -2.19
C       2.72      17.57       1.97
C       2.47      14.33      -1.95
C      -2.41      17.48       2.22
O       2.90      16.37       1.54
O       1.73      15.12      -2.61
O      -1.41      18.24       1.97
O       2.48      14.10      -0.71
O      -2.68      16.37       1.67
O      -2.67      14.63      -0.94
O       1.70      18.31       1.75
O       0.38      17.94      -2.58
O       1.07      13.72       1.98
O       0.07      16.11       0.02
O      -0.02      19.28      -0.77
O      -1.18      13.54       1.62
O      -1.47      15.36      -2.74
