12

Zn       7.24       4.57       7.46
O       6.47       4.55       5.56
O       7.52       4.53       9.63
H       9.98       4.56       6.58
C       5.84       7.09       7.97
C       5.98       1.94       7.89
C       5.22       4.52       5.34
C       6.60       4.51      10.51
N       9.98       4.48       8.45
N       9.32       4.55       7.40
O       6.95       6.55       7.64
O       7.06       2.56       7.59
