11

N       2.03       1.65      14.94
Zn       3.39       0.93      16.35
C       3.84      -1.63      15.08
O       4.38      -0.56      15.55
C       0.52       1.12      16.77
C       5.19       2.00      17.81
C       0.78       1.58      15.42
N       1.63       0.73      17.44
C       1.54       0.37      18.73
C       1.97       2.26      13.71
O       4.84       2.29      16.60
