10

Al       3.97       8.62       0.00
C       1.98       6.82      -0.98
O       2.90      10.19      -0.21
O       2.90       7.65      -1.26
O       2.90       8.01       1.47
O       5.02       9.56      -1.29
O       5.02       9.26       1.46
O       5.02       7.03      -0.17
C       1.98      10.36      -1.07
C       1.98       8.67       2.05
