20

Zn      10.47       9.00      31.57
Zn       7.46       9.10      31.49
O      10.22       6.93      31.49
O       8.00       7.15      31.07
O       7.64       9.51      29.50
O       9.88       9.19      29.62
O       8.14      11.01      31.87
O      10.40      11.08      31.67
O       9.83       8.82      33.52
O       7.57       8.60      33.49
C       9.06       6.48      31.28
C       8.80       9.41      28.99
C       9.25      11.60      31.76
C       8.71       8.58      34.04
C       4.54       8.24      30.75
C       4.59       9.86      32.38
C      13.38       8.38      30.75
C      13.32       9.52      32.75
N       5.27       9.08      31.51
N      12.65       8.97      31.72
