10

Al       1.57      13.49       7.87
C      -0.42      13.50       9.92
C      -0.41      15.27       6.83
C      -0.44      11.71       6.84
O       0.53      12.49       6.59
O       0.53      12.88       9.35
O       0.53      15.06       7.67
O       2.62      11.92       7.68
O       2.62      14.48       6.58
O       2.62      14.12       9.34
