23

Zn       7.33       8.15       6.36
Zn       9.92       8.17       8.20
Zn       7.90      10.49       8.53
Zn       9.50      10.26       5.67
C      12.15       9.42       6.71
C       5.24       9.40       8.00
C       8.58       5.69       7.44
C       8.27      12.77       6.68
C       9.48       9.52      10.74
C       8.10       8.76       3.57
O       8.68       9.29       7.17
O       9.67       8.40      10.15
O       8.97       9.64       3.88
O       8.91      10.54      10.21
O       7.39       8.09       4.41
O       7.56       6.28       6.95
O       8.79      12.13       5.71
O      11.71       8.83       7.76
O       6.03       9.95       8.85
O      11.45      10.01       5.81
O       5.58       8.84       6.91
O       9.65       6.26       7.87
O       8.02      12.34       7.85
