23

Zn       9.24      15.60       0.75
Zn      10.92      18.37       0.60
Zn       7.71      18.39       0.62
Zn       9.24      17.31      -1.96
C      11.83      16.05       2.16
C       9.32      20.48       1.93
C       6.72      16.06       2.16
C       6.72      18.79      -2.15
C       9.26      14.35      -1.92
C      11.83      18.78      -2.17
O       9.30      17.42      -0.00
O      10.83      15.32       1.85
O      10.46      20.00       1.62
O       6.61      17.27       1.77
O      12.03      17.26       1.78
O       7.66      15.25       1.87
O       8.17      20.00       1.63
O       6.62      18.96      -0.90
O       9.25      15.44      -2.59
O       7.66      18.17      -2.76
O       9.25      14.22      -0.65
O      12.04      18.96      -0.92
O      10.83      18.18      -2.69
