52

Tm       9.15       7.05       6.94
Tm       7.43       5.87       1.85
Tm      10.80       6.72      10.65
Tm       7.16       4.21      -1.85
H       6.55       8.22       5.81
H       7.27       8.71       2.99
H      13.41       5.56      11.78
H       7.32       1.36      -2.99
H       7.13       8.90       7.06
H       6.42       8.41       1.73
H      12.82       4.87      10.52
H       8.17       1.66      -1.73
C       6.69       5.60       5.17
C       9.67       7.66       3.62
C      13.27       8.17      12.42
C      10.29       6.12      13.96
C      12.28       6.15       7.69
C       7.17       2.62       1.10
C       7.68       7.62       9.89
C       7.43       7.45      -1.10
C       9.35       4.41       9.21
C       9.83       4.75      -0.42
C      10.61       9.36       8.37
C       4.76       5.33       0.42
O       7.70       5.72       5.93
O       9.19       6.75       2.86
O      12.25       8.05      11.65
O      10.76       7.03      14.72
O       6.75       5.44       3.92
O       9.80       7.55       4.87
O      13.21       8.33      13.66
O      10.16       6.23      12.71
O      12.21       6.02       8.96
O       7.32       2.64      -0.17
O       7.74       7.76       8.62
O       7.27       7.44       0.17
O      11.31       6.50       6.95
O       7.19       3.65       1.84
O       8.64       7.28      10.63
O       7.40       6.42      -1.84
O       9.19       5.34       8.34
O       9.03       5.22       0.45
O      10.77       8.44       9.24
O       5.57       4.85      -0.45
O      10.02       4.59      10.28
O       9.43       4.18      -1.49
O       9.93       9.18       7.31
O       5.17       5.89       1.49
O       7.35       8.65       6.14
O       6.58       8.11       2.65
O      12.60       5.13      11.44
O       8.01       1.96      -2.65
