14

Cu      13.83      13.34      27.15
Cu      14.97      14.48      25.32
O      15.62      13.13      27.97
O      13.27      14.68      24.41
C      16.65      13.65      27.41
C      14.66      11.67      25.07
O      13.64      15.05      28.06
O      15.18      12.69      24.50
C      12.20      14.29      25.01
O      14.61      16.16      26.33
O      16.66      14.27      26.28
O      12.15      13.71      26.15
O      14.05      11.66      26.19
C      14.03      16.11      27.47
