13

C      16.43      18.00       5.29
N      17.11      18.84       6.10
N      14.59      20.21       7.85
N      17.11      18.66       9.49
N      17.47      21.41       7.96
C      17.94      21.91       9.11
C      13.46      19.48       7.84
C      18.30      19.10       5.45
C      14.16      21.51       7.86
Zn      16.54      19.61       7.83
C      18.42      18.42       9.84
C      17.65      22.40       7.01
C      16.36      18.12      10.46
