23

Zn      18.57      12.55       9.83
Zn      17.00      11.53       7.25
Zn      20.17      11.53       7.20
Zn      18.52      14.32       7.12
C      16.02      11.11      10.02
C      18.57       9.42       5.92
C      21.12      11.12      10.01
C      21.10      13.85       5.69
C      18.56      15.53       9.80
C      16.00      13.84       5.70
O      18.59      12.50       7.86
O      16.98      11.70      10.63
O      17.44       9.92       6.24
O      21.24      10.98       8.75
O      15.89      10.97       8.76
O      20.16      11.69      10.62
O      19.73       9.89       6.19
O      21.30      12.64       6.04
O      18.54      15.69       8.53
O      20.12      14.59       6.01
O      18.57      14.42      10.43
O      15.89      12.64       6.09
O      16.95      14.65       5.99
