11

Zn       1.09       5.89      25.23
C       1.27       5.61      22.27
C       3.12       6.56      27.35
C       0.29       8.49      25.44
O      -0.30       7.34      25.43
C       0.79       3.15      24.85
C       2.60       7.21      22.93
N       2.11       5.78      26.92
O       0.06       4.18      25.14
C       1.69       5.04      28.00
N       1.79       6.26      23.38
