18

Al       5.67       9.42      11.25
Al       2.32       9.41      11.25
O       6.19       8.20       9.82
O       2.86      10.62      12.63
O       5.13      10.74       9.94
O       5.14      10.59      12.67
O       6.21       8.13      12.56
O       2.85      10.71       9.90
O       3.99       8.62      11.20
O       8.49       8.16      12.60
O       8.48       8.17       9.85
O       7.34      10.21      11.23
H       4.00       7.69      10.92
H       7.34      11.11      10.88
C       3.99      11.11       9.51
C       4.00      10.96      13.10
C       7.35       7.78      13.02
C       7.34       7.85       9.39
