56

C       4.99       5.79       3.23
C       5.81       5.68       2.08
Zn      10.02       1.92       6.35
Zn       5.46       5.61       6.35
Zn      10.93       7.71       6.35
C      12.42       9.38       7.53
C      13.44      10.36       8.05
C       6.92       7.97       7.75
Co       8.80       5.08       1.75
C       8.22       8.54       7.70
Zn       8.80       5.08       5.08
C      11.32       8.02       3.23
C      10.82       7.37       2.08
H      10.14      -2.02       8.48
N      11.05       3.61       6.84
N      10.61       4.79       6.39
N      11.31       5.79       6.91
N       9.88       2.22       4.32
N       9.46       3.41       3.86
N       9.38       3.43       2.53
N       6.40       3.86       6.84
N       7.64       3.66       6.39
N       8.16       2.55       6.91
N       5.79       5.58       4.32
N       7.03       5.35       3.86
N       7.08       5.40       2.53
N       8.95       7.77       6.84
N       8.15       6.79       6.39
N       6.93       6.90       6.91
N      10.74       7.44       4.32
N       9.92       6.48       3.86
N       9.94       6.41       2.53
H      14.28       9.79       8.48
H      13.02      10.94       8.87
H      13.82      11.00       7.25
O      10.64       0.79       8.30
O      10.46      -0.06       6.27
O       4.17       5.63       8.30
O       3.52       6.21       6.26
O      11.59       8.82       8.30
O      12.42       9.09       6.27
H      11.77      -1.50       8.87
H      11.42      -2.22       7.25
H       1.98       7.47       8.48
C      10.71      -0.20       7.53
C      11.05      -1.57       8.05
C      12.25       5.26       7.75
C      12.09       3.86       7.70
H       1.61       5.80       8.87
C      10.09       1.42       3.23
C       9.77       2.19       2.08
H       1.16       6.47       7.25
C       3.27       6.07       7.53
C       1.91       6.46       8.05
C       7.23       2.01       7.75
C       6.09       2.85       7.70
