18

Mg       2.38      -0.60      24.79
C       0.42      -1.68      22.62
Mg       0.10       1.04      24.01
Mg       4.67      -0.45      22.98
C       4.99      -0.30      26.03
C       2.70       1.97      23.14
O       1.00       0.52      25.75
O      -0.77      -1.65      22.17
O       1.51       2.35      23.38
O       3.80      -0.71      26.24
O       0.83      -0.76      23.44
O       3.11       0.80      23.52
O      -1.46      -0.05      24.83
O       3.28      -1.84      23.47
O      -1.29       1.32      22.57
C       2.72      -2.79      22.70
C      -1.85       2.45      22.13
C       0.43       0.32      26.95
