9

C       5.97       9.64      11.14
Zn       5.62       9.97      14.08
C       7.64      10.58      16.23
C       7.60       8.34      15.62
I       5.09      12.47      14.07
I       3.98       8.06      14.35
N       6.66       9.63      12.30
C       8.00       9.55      12.27
N       7.13       9.59      15.47
