23

Zn      10.82      14.00      14.58
H      10.18      16.87      16.76
O      10.82      16.12      14.18
O      11.07      18.70      16.84
H      11.20      19.48      16.27
C       8.00      13.47      13.40
C       9.87      13.17      11.76
C      12.07      13.20      11.88
C      13.74      13.45      13.74
C      13.62      13.89      15.90
C      11.75      14.29      17.52
C       9.55      14.26      17.39
C      11.41      17.14      14.99
C       7.88      13.87      15.56
C      10.45      17.67      16.06
N      10.93      13.37      12.61
N      12.87      13.68      14.77
N      10.70      14.14      16.65
N       8.75      13.74      14.51
H      10.29      16.51      13.44
H      11.76      17.97      14.35
H      12.30      16.70      15.48
H       9.52      18.03      15.58
