20

Zn      14.57       0.58       0.71
Zn      16.81      -0.58      -0.71
C      14.08      -1.95      -0.63
C      17.30       1.95       0.63
C      14.97       1.40      -2.11
C      16.41      -1.40       2.11
N      13.20       1.48       1.92
N      18.19      -1.48      -1.92
O      13.51      -1.05       0.07
O      17.88       1.05      -0.07
C      13.43       1.53       3.25
O      15.26      -1.87      -1.11
O      16.12       1.87       1.11
C      17.96      -1.53      -3.25
O      16.02       0.68      -2.18
O      15.37      -0.68       2.18
O      14.22       1.54      -1.09
O      17.17      -1.54       1.09
C      12.04       1.96       1.44
C      19.35      -1.96      -1.44
