14

Zn      14.50      -3.81       7.01
Zn      15.90      -4.98       9.04
O      13.74      -5.57       7.84
O      14.91      -6.62       9.44
O      15.22      -4.79       5.49
O      16.51      -5.74       7.12
O      16.32      -2.82       7.31
O      17.34      -3.66       9.16
O      13.16      -2.86       8.05
O      14.59      -3.43       9.71
C      13.92      -6.56       8.61
C      16.16      -5.57       5.92
C      17.23      -2.83       8.19
C      13.53      -2.89       9.28
