15

Cu      -1.25       8.26       0.92
Cu      -4.23       7.19       0.94
Cu      -2.72       7.72      -1.84
C      -1.68       8.12       3.80
C      -3.76       7.37       3.83
C      -0.12       8.62      -2.85
C       0.90       9.01      -0.92
C      -6.36       6.44      -0.93
C      -5.31       6.80      -2.85
N      -3.38       7.50       2.54
N      -2.09       7.97       2.53
N      -0.35       8.57      -0.66
N      -0.98       8.33      -1.86
N      -4.46       7.10      -1.85
N      -5.11       6.88      -0.66
