20

Zn       8.71       5.53       6.30
Zn       5.86       5.60       6.42
C       7.35       8.16       6.26
C       7.20       5.00       3.85
C      12.88       6.25       5.51
C      12.87       4.91       7.32
C      11.47       4.87       7.28
C       7.20       2.97       6.62
C      11.49       6.19       5.45
C       7.39       5.53       8.93
N      13.60       5.61       6.42
N      10.75       5.52       6.32
O       8.44       7.58       5.95
O       6.22       7.61       6.45
O       8.36       4.89       4.38
O       6.20       5.57       4.41
O       8.33       3.51       6.81
O       6.10       3.53       6.34
O       8.47       5.85       8.34
O       6.25       5.44       8.39
