54

Zr       3.59       2.63       0.82
Zr       4.44      -0.21       2.73
Zr       0.35       1.34       0.31
Zr       1.60       1.71       3.60
Zr       3.17      -0.60      -0.54
O       3.30      -1.71       1.44
C       3.32      -3.05       4.06
C       4.09       0.93       5.70
C       6.05      -1.86       0.53
Zr       1.19      -1.51       2.23
O       0.11       0.49       2.40
C      -1.70      -1.23       0.87
C      -1.18       3.12       2.48
C       0.62       0.06      -2.61
C      -0.08      -0.54       5.14
C       1.82      -3.50      -0.35
O       2.42      -0.15       3.19
H       4.34       2.50       3.55
H       2.34       1.88      -1.62
H      -0.79       0.45       2.76
H       3.65      -2.61       1.42
C       1.43       4.26      -0.88
C       2.80       4.67       3.36
C       6.53       2.31       2.03
O       0.48       3.41      -0.81
O       6.36       1.20       2.61
O       3.34       4.54       2.22
O       4.88       2.49      -1.19
O       4.41       0.40      -1.96
O       2.15       3.75       4.00
O       5.63       2.95       1.37
O       2.59       4.12      -0.35
O       4.07       0.62       0.88
O       1.71       2.23       1.59
O       3.78       1.95       2.98
O       2.36       1.51      -0.72
O       4.29      -2.26       3.88
O      -1.53      -0.10       0.32
O       2.94       1.46       5.54
O       5.25      -1.67      -0.44
O       1.75      -0.51      -2.45
O      -0.41       2.90       3.46
O       0.01      -1.45       4.26
O       1.31      -3.37       0.81
O       0.42       0.64       5.04
O       2.52      -2.61      -0.96
O       4.75       0.30       4.79
O      -1.04       2.64       1.29
O       0.01       0.77      -1.73
O       5.91      -1.38       1.72
O       2.15      -2.93       3.54
O      -0.81      -1.85       1.57
O       1.36      -0.46       0.45
C       4.97       1.56      -2.05
