32

Dy      -0.01       7.19       2.58
Dy      -0.20      11.04       3.88
O      -2.34      12.40       4.70
C      -2.06       4.64       1.77
C       2.06       9.65       1.80
O      -1.90       9.81       5.08
H      -2.52      13.07       4.01
O      -0.03       7.29       0.08
C       2.15      12.41       7.16
H      -1.94      12.87       5.46
H      -2.77      10.22       5.00
H      -1.97       8.83       4.90
C       1.36      12.00       5.96
H      -0.61       6.57      -0.22
H       0.86       7.09      -0.24
C      -1.46       6.15       4.97
C       1.45       8.14       4.97
C       0.01      14.29       3.69
O       1.30      10.57       2.20
C      -1.97       9.97       1.69
C       1.93       4.39       1.64
O      -1.75       5.89       1.74
O       1.79       8.40       1.82
O      -1.81      11.13       2.20
O      -1.33       8.95       2.14
O       1.28       5.43       2.00
O       1.96      11.64       4.90
O       0.08      12.00       6.03
O       0.62       8.98       4.49
O      -1.61       7.28       4.41
O       1.59       7.01       4.40
O      -0.01      13.17       3.11
