14

O       1.48       5.20      21.66
O      -0.97       7.78      24.74
O      -0.79       5.10      21.75
O       1.30       7.88      24.66
Zn       1.55       6.48      23.22
O       1.46       7.99      21.88
Zn      -1.04       6.50      23.19
O      -0.94       4.99      24.53
O      -0.82       7.98      21.84
C       0.33       8.38      21.44
C       0.19       4.60      24.97
C       0.35       4.75      21.29
C       0.16       8.23      25.11
O       1.34       5.00      24.57
