14

O      14.26      -4.04       9.38
O      17.85      -4.00       6.76
Zn      14.95      -5.57       8.13
Zn      16.52      -3.38       8.03
O      16.52      -5.84       6.85
O      15.61      -2.21       9.31
C      13.89      -3.91       6.36
C      16.77      -5.82      10.04
C      14.58      -2.87       9.75
C      17.53      -5.20       6.40
O      13.59      -5.08       6.81
O      17.13      -4.70       9.55
O      14.97      -3.27       6.62
O      15.77      -6.52       9.63
