11

C       1.56       7.73       1.74
Cu       1.57       9.81       0.00
O       2.33      10.86      -1.50
C       2.37      10.98       2.64
C       0.76       8.63      -2.64
C       1.57      11.89      -1.74
N       3.53      11.75       0.96
N      -0.39       7.87      -0.96
N       2.58      10.85       1.33
N       0.55       8.76      -1.33
O       0.81       8.76       1.50
