23

Zn       6.66      11.84      22.45
O       7.65      10.16      22.55
Zn       6.42       8.64      22.54
O       4.57       9.30      22.74
Zn       8.78      10.16      24.15
Zn       8.83      10.03      20.99
O      10.70      10.29      23.71
O      10.63       9.52      21.57
O       6.88       7.37      23.97
O       6.43       7.71      20.80
O       8.90      11.78      20.08
O       8.23      11.66      25.31
O       4.75      11.57      22.84
O       8.26       8.61      19.77
O       8.37       8.57      25.23
O       7.38      13.12      23.79
O       6.84      12.60      20.64
C       7.29       7.78      19.86
C       7.62       7.56      25.00
C       7.80      12.81      24.95
C       7.91      12.59      19.94
C       4.09      10.48      22.87
C      11.25       9.88      22.62
