11

Zn       2.88       4.72      11.86
C       4.22       7.22      11.86
C       4.16       2.05      11.86
C       4.19       4.64      14.46
C       4.19       4.64       9.26
N      -0.41       4.61      11.86
N       0.70       4.66      11.86
O       3.04       6.74      11.86
O       3.05       2.69      11.86
O       3.06       4.78      13.89
O       3.06       4.78       9.83
