18

Al       1.96       3.86       5.93
O       3.66       4.59       5.98
O       0.31       2.98       5.84
Al       5.30       3.71       5.89
H       3.75       5.54       6.17
H       0.41       2.03       5.65
C       3.59       2.42       3.92
O       4.74       2.30       7.07
C       0.24       5.16       7.90
O       1.39       5.27       4.75
C       3.58       1.99       7.51
O       2.47       2.79       4.41
C       0.24       5.58       4.31
O       5.82       4.79       7.41
O       2.48       2.54       7.20
O       5.83       5.04       4.62
O       1.40       4.95       7.42
O       4.75       2.62       4.40
