18

Al       1.90       5.76       6.44
Al       5.22       5.71       6.44
H       3.52       3.96       6.63
H       0.19       7.42       6.83
C       3.57       7.28       4.58
C       3.58       7.36       8.25
O       4.70       6.96       7.80
C       0.23       4.19       8.33
O       2.42       6.94       5.03
C       0.23       4.09       4.67
O       1.35       4.49       5.13
O       2.43       7.04       7.77
O       1.37       4.53       7.88
O       4.69       6.90       5.05
O       3.55       4.92       6.47
O      -0.90       4.46       7.84
O      -0.91       4.44       5.11
O       0.22       6.53       6.46
