23

Zn      18.21       7.25       8.86
Zn      16.72       4.44       8.67
Zn      18.55       5.45       6.18
Zn      19.95       4.52       8.77
O      18.34       5.43       8.13
O      16.55       7.58       9.83
C      15.62       6.75      10.13
C      18.38       8.37       6.13
O      15.64       4.02       7.05
O      18.40       8.54       7.40
C      20.77       6.95      10.26
O      15.55       5.52       9.80
C      18.36       2.44      10.07
O      18.36       7.26       5.50
O      19.64       7.52      10.22
O      17.22       2.80       9.60
O      17.28       4.04       5.49
O      20.18       4.64       5.47
O      21.13       5.98       9.50
O      21.20       3.91       7.39
O      19.48       3.03       9.92
C      16.07       3.83       5.88
C      21.13       4.06       6.12
