18

Cd       4.81       0.66      10.16
Cd       8.40      -0.61      10.23
H       6.85      -1.73      12.23
H       3.29       1.53      12.26
H       8.14      -2.67      12.19
H       4.59       0.84      12.85
O       7.85      -1.74      12.24
O       4.29       1.58      12.28
O       6.15      -0.64       8.82
O       7.47      -2.42       9.15
C       7.82       1.87      11.47
O       6.98       1.29      10.68
C       4.27      -1.86      11.50
C       2.76       1.92       8.71
O       3.48      -1.29      10.66
O       3.85       2.44       9.12
O       9.69       0.65       8.79
C       6.37      -1.91       8.73
