46

Zn       0.38       9.12       5.42
Zn      -5.25       6.65       3.72
Zn       0.27       5.83       4.91
Zn       5.90       8.30       6.61
Zn      -2.44       8.17       4.15
Zn       3.08       6.78       6.18
H      -0.15       8.02       3.16
H      -4.72       9.16       3.94
H       0.80       6.93       7.17
H       5.37       5.79       6.39
C      -1.54      11.13       4.20
C      -3.34       7.09       1.40
C       2.18       3.82       6.13
C       3.99       7.86       8.93
C      -2.11       3.86       4.39
C      -2.77       9.48       8.28
C       2.75      11.09       5.94
C       3.41       5.47       2.05
C      -3.49       4.04       4.15
C      -1.38       9.65       8.02
C       4.14      10.92       6.18
C       2.03       5.31       2.31
N      -1.59       5.11       4.59
N      -3.29       8.84       7.17
N       2.23       9.84       5.74
N       3.93       6.11       3.16
N      -2.59       5.99       4.48
N      -2.29       8.64       6.32
N       3.23       8.97       5.85
N       2.93       6.31       4.01
N      -3.73       5.38       4.21
N      -1.14       9.11       6.79
N       4.38       9.58       6.12
N       1.79       5.84       3.54
O      -0.34      10.94       4.61
O      -4.53       6.77       1.72
O       0.99       4.01       5.72
O       5.18       8.18       8.61
O      -2.36      10.23       3.85
O      -2.51       7.73       2.12
O       3.01       4.72       6.48
O       3.16       7.22       8.21
O      -0.38       7.85       4.09
O      -4.50       8.35       4.43
O       1.02       7.10       6.24
O       5.14       6.60       5.90
