20

Zn       3.40       4.90       7.75
Zn       2.83       7.74       7.72
C       3.08       6.27      10.34
C       4.88       2.56       8.66
C       5.70       6.90       7.77
C       0.58       5.70       7.69
C       3.14       6.41       5.09
C       3.00      10.77       8.17
C       3.77       2.07       6.67
C       0.98       9.96       7.32
N       2.25       9.72       7.75
N       4.06       2.95       7.65
O       3.43       5.17       9.78
O       3.03       7.53       5.68
O       2.81       7.35       9.73
O       3.21       5.27       5.68
O       5.31       5.70       7.63
O       0.95       6.92       7.57
O       4.92       7.92       7.85
O       1.36       4.69       7.79
