14

Zn      27.20      20.29      10.49
Zn      28.70      19.23      12.33
C      29.44      18.71       9.58
O      28.45      19.41       9.17
C      26.46      20.82      13.24
C      26.46      17.65      11.41
O      29.77      18.47      10.79
O      27.45      20.12      13.64
O      26.12      21.05      12.03
O      26.13      18.58      10.60
O      27.44      17.65      12.22
C      29.44      21.87      11.41
O      28.45      21.88      10.60
O      29.78      20.94      12.22
