20

Zn       7.87       7.54       9.60
Zn       7.67      10.39       9.74
C       7.71       9.15       7.09
C       7.82       8.67      12.26
C       8.71       4.87      10.49
C       6.87      13.08       8.83
C       5.20       8.87      10.05
C      10.35       9.15       9.89
C       7.34       4.71       8.65
C       8.14      13.21      10.75
N       7.97       5.46       9.53
N       7.56      12.47       9.82
O       7.94       8.02       7.64
O       7.82       9.81      11.69
O       7.49      10.25       7.71
O       7.85       7.54      11.67
O       5.83       7.81       9.73
O       9.73      10.23       9.63
O       5.63      10.06       9.97
O       9.90       7.97       9.83
