14

Cu       6.22       1.23       0.00
Cu       6.22      -1.23       0.00
O       4.84      -1.14      -1.40
O       7.60       1.14      -1.40
O       7.60      -1.14      -1.40
O       4.84       1.14      -1.40
C       4.45       0.00       1.82
O       7.60       1.14       1.40
C       8.00       0.00       1.82
O       4.84      -1.14       1.40
C       4.45       0.00      -1.82
C       8.00       0.00      -1.82
O       4.84       1.14       1.40
O       7.60      -1.14       1.40
