10

Al       4.05      20.91       4.02
O       5.12      21.15       5.59
O       5.12      22.14       3.03
O       5.12      19.43       3.45
O       2.97      22.16       4.97
O       2.98      19.45       4.64
O       2.97      21.10       2.45
C       6.10      21.91       2.25
C       6.10      18.87       4.04
C       6.10      21.93       5.78
