23

Zn      19.83       8.27      23.60
Zn      23.00       8.39      23.79
Zn      21.28       7.20      26.28
Zn      21.55       5.51      23.72
C      21.42       4.26      26.36
O      21.41       7.36      24.34
C      21.41      10.39      22.32
O      23.85       9.17      25.42
C      18.75       8.64      26.33
O      22.56       9.93      22.68
C      19.00       5.81      22.20
O      18.59       8.67      25.06
C      24.10       6.04      22.39
O      19.75       8.17      26.97
C      23.82       8.72      26.60
O      20.27       9.89      22.61
O      24.26       7.23      22.86
O      23.08       5.28      22.55
O      23.10       7.74      26.99
O      21.30       5.38      26.99
O      19.73       5.07      22.96
O      21.54       4.12      25.09
O      18.98       7.08      22.25
