18

O       5.49      -3.69      16.67
Al       2.64      -5.06      18.00
O       2.04      -6.56      19.03
Al       5.98      -5.03      18.00
O       3.13      -4.22      19.64
O       3.23      -3.51      16.96
O       2.15      -5.95      16.37
O       5.36      -3.86      19.37
O       4.32      -5.84      17.85
O       6.57      -6.23      16.62
O       6.47      -6.29      19.37
O       7.65      -4.22      18.08
H       4.34      -6.65      17.31
H       7.67      -3.33      17.68
C       4.26      -3.74      20.01
C       4.35      -3.17      16.44
C       7.67      -6.37      15.99
C       7.59      -6.85      19.58
