23

C       5.58      11.43       9.02
Cu      10.01       8.07       8.76
Cu       5.00      10.09      11.37
Cu       7.50       9.08      10.07
O       8.80      10.65       9.62
O       9.98       9.81       7.87
O       8.08       7.99       8.59
H       7.87       8.50       7.78
O      10.03       6.54       9.99
O      11.96       8.05       8.46
O       6.21       7.50      10.52
O       5.03       8.34      12.27
O       6.93      10.16      11.55
H      12.39       8.96       8.44
H      12.52       7.54       9.10
H       7.14       9.65      12.35
O       4.98      11.61      10.15
O       3.05      10.11      11.68
H       2.62       9.20      11.70
H       2.49      10.61      11.04
C       9.49      10.78       8.55
C       9.43       6.72      11.11
C       5.51       7.37      11.58
