14

Zn       2.24      -8.32      14.50
Zn       3.81      -9.44      16.40
O       3.78      -7.05      15.09
C       4.12      -9.77      13.30
O       5.03      -7.94      16.76
C       4.70      -6.98      15.97
O       0.87      -7.51      15.60
C       1.10      -7.85      16.83
O       2.15      -8.44      17.23
O       1.59     -10.25      15.08
O       2.94     -11.17      16.66
O       3.17      -8.99      12.93
O       4.49      -9.97      14.49
C       1.89     -11.15      15.92
