18

Al       4.05       4.48       8.56
Al       7.38       4.48       8.57
H       5.75       4.96      10.24
H       2.35       4.00       6.90
O       3.43       6.21       8.98
O       7.99       4.28      10.38
C       2.36       6.89       8.70
C       2.44       3.99      10.93
C       5.74       2.07       8.43
C       5.67       4.98       6.21
O       1.21       6.37       8.51
O       6.90       2.59       8.63
O       5.73       4.98       9.27
O       2.38       3.97       7.87
O       4.54       5.06       6.81
O       4.68       2.75       8.15
O       6.78       4.68       6.76
O       3.56       3.90      10.32
