23

Zn      17.70       4.96      32.00
Zn      14.49       4.84      31.82
Zn      16.18       2.13      31.82
Zn      16.02       3.91      34.50
C      16.09       6.97      30.54
C      13.68       2.46      30.27
C      18.80       2.63      30.54
C      16.10       0.95      34.54
C      18.51       5.47      34.79
C      13.39       5.29      34.53
O      16.10       3.96      32.54
O      17.23       6.53      30.90
O      13.46       3.67      30.63
O      17.83       1.84      30.80
O      14.94       6.47      30.81
O      18.91       3.85      30.90
O      14.66       1.74      30.63
O      16.16       0.80      33.27
O      17.53       4.86      35.32
O      16.03       2.06      35.18
O      18.73       5.60      33.54
O      13.28       5.43      33.27
O      14.36       4.74      35.17
