18

Al       2.31       0.04       0.02
O       1.78       1.15      -1.44
Al       5.64      -0.04      -0.02
O       2.83      -1.31      -1.24
O       5.11      -1.15       1.44
O      -0.50       1.31       1.24
O       2.85      -1.07       1.50
O      -0.48       1.07      -1.50
H       4.00       1.63      -0.61
H       0.67      -1.63       0.61
O       1.77       1.41       1.28
O       5.10      -1.41      -1.29
O       3.99       0.81      -0.09
O       0.66      -0.81       0.09
C       3.94      -1.77      -1.67
C       0.61       1.77       1.67
C       3.98      -1.46       1.94
C       0.65       1.46      -1.94
