15

Cu       4.08      27.23      29.81
Cu       5.36      29.85      28.56
Cu       2.82      28.48      27.17
N       6.07      29.16      30.11
C       6.36      27.56      31.61
C       7.09      29.54      30.90
C       1.08      26.15      27.49
C       1.80      25.45      29.48
C       5.05      31.62      26.26
C       3.16      30.78      25.41
N       5.61      27.94      30.56
N       2.56      26.49      29.10
N       2.10      26.93      27.87
N       3.52      30.04      26.46
N       4.68      30.56      27.00
