20

Co      16.86       7.59      12.19
Co      18.52       6.30      13.14
C      13.98       7.50      11.25
C      21.40       6.40      14.07
C      14.68       9.70      11.29
C      20.70       4.20      14.04
C      17.40       5.09      10.85
C      17.98       8.81      14.48
C      19.36       8.34      11.18
C      16.02       5.56      14.14
N      14.96       8.39      11.46
N      20.41       5.50      13.87
O      18.13       8.66      11.02
O      17.25       5.24      14.30
O      19.75       7.37      11.91
O      15.63       6.53      13.42
O      18.33       4.92      11.70
O      17.04       8.98      13.63
O      16.65       6.12      10.81
O      18.73       7.78      14.52
