54

Zr       5.66       3.65       5.49
Zr       2.12       1.47       8.22
Zr       3.99       0.54       5.36
Zr       3.78       4.58       8.34
Zr       5.65       1.55       8.34
Zr       2.13       3.56       5.36
H       6.74       1.04       5.77
H       3.78       2.51      10.26
H       1.19       0.90       5.60
H       3.84       5.80       5.77
C       8.37       2.70       7.03
C       3.88      -0.13      10.44
C      -0.59       2.56       6.76
C       3.92       5.12       3.16
C       6.26       1.47       3.20
C       6.11       6.46       7.01
C       1.43       3.72      10.42
C       1.79      -1.40       6.81
C       6.15      -1.33       6.87
C       1.86       1.26       3.04
C       1.51       6.39       6.91
C       6.05       3.94      10.55
O       7.80       3.38       6.11
O       2.74       0.18       9.93
O      -0.03       1.85       7.67
O       5.05       4.86       3.70
O       5.41       0.61       3.63
O       5.21       6.29       7.91
O       2.28       4.58      10.01
O       2.65      -1.22       5.88
O       6.43      -0.51       7.82
O       1.52       2.41       3.51
O       1.27       5.58       5.95
O       6.37       2.78      10.10
O       2.72       0.47       3.55
O       2.35       6.21       7.86
O       5.15       4.71      10.09
O       5.35      -1.12       5.90
O       6.48       2.61       3.74
O       1.47      -0.55       7.71
O       1.24       2.56       9.90
O       6.40       5.65       6.06
O       2.77       4.80       3.62
O       7.80       2.01       7.94
O       5.03       0.24      10.00
O      -0.00       3.20       5.82
O       3.84       4.88       6.08
O       1.96       1.38       5.94
O       3.83       2.52       9.29
O       5.94       1.48       6.09
O       3.93       0.86       7.42
O       5.32       3.44       7.52
O       2.38       3.37       7.41
O       3.94       2.59       5.05
