23

Zn      10.13      18.68      13.50
Zn       8.40      20.22      15.63
Zn       8.44      17.00      15.59
Zn       6.84      18.59      13.34
O       9.70      18.82      11.58
O       7.43      18.51      11.45
O       6.81      21.31      15.30
O       5.76      20.22      13.61
O       8.15      17.45      17.49
O       6.94      15.85      15.08
O       5.64      17.06      13.67
C      11.02      21.21      14.71
C       8.30      18.57      18.08
C      11.06      16.12      14.65
C       5.88      16.05      14.41
C       8.60      18.63      10.95
C       5.87      21.17      14.45
O       8.43      18.63      14.49
O      11.25      20.24      13.92
O       8.42      19.72      17.55
O      10.06      15.94      15.43
O       9.98      21.36      15.43
O      11.22      17.10      13.85
