15

N       2.82      13.56      26.30
N       3.82      14.23      26.98
N       5.29      12.79      30.04
Cu       2.11      12.03      27.05
Cu       4.51      13.50      28.53
N       1.39      10.49      27.77
N       4.80      11.61      30.55
Cu       3.36      10.81      29.73
N       1.92       9.97      28.93
C       4.18      15.30      26.26
C       2.58      14.22      25.16
C       5.58      11.25      31.59
C       6.36      13.15      30.76
C       0.37       9.70      27.38
C       1.24       8.85      29.24
