36

Zn       6.00       0.83       1.78
Zn       8.61      -1.13      -1.55
Zn       6.10       0.94      -1.48
Zn       8.72      -0.91       1.70
N       7.09       0.79       3.53
C       3.06       1.74       1.16
C       7.15       1.58       4.62
C       8.78       0.05      -4.45
C       7.76       3.31      -0.89
C      10.56       1.40       1.01
C      10.84       0.95      -1.13
C       7.42       3.43       1.28
C       9.06       0.50       4.45
C       9.84      -3.95      -0.78
C       7.18       1.57      -4.30
C       4.63      -1.68      -1.86
C       6.67      -3.07       2.24
C       6.36      -3.04      -1.72
C       4.81      -1.88       2.12
C      10.26      -3.60       1.35
C       3.23       2.10      -1.01
N       4.34       1.52       0.80
N       8.10      -0.21      -3.31
N       7.39       2.09      -0.46
N       9.62       0.51       0.64
N       9.79       0.25      -0.69
N       7.19       2.16       0.88
N       8.29       0.13       3.42
N       7.11       0.76      -3.22
N       9.56      -2.66      -0.51
N       5.68      -1.00      -1.34
N       6.97      -1.87       1.70
N       6.74      -1.83      -1.26
N       5.83      -1.14       1.63
N       9.81      -2.44       0.82
N       4.44       1.73      -0.55
