18

C       1.47       7.91      23.63
Al      -0.26       6.36      21.81
O       4.77       7.18      21.78
Al       3.10       6.33      21.82
O       2.58       7.40      23.30
O       2.50       7.72      20.57
O       1.42       5.52      21.76
C       1.39       7.97      20.00
H       4.75       8.02      21.29
H       1.40       4.74      21.18
O       3.71       5.03      23.08
C       4.75       4.81      19.93
O      -0.84       5.03      20.50
C       4.82       4.80      23.65
O       0.25       7.51      20.34
O      -0.76       5.28      23.28
O       0.35       7.69      23.06
O       3.61       5.23      20.33
