9

C      -3.51       2.85       9.00
C      -1.56       0.74      11.82
In      -1.49       1.05       9.13
C       0.88       1.82       8.06
C      -1.77      -1.19       7.63
O      -2.32       3.00       8.53
O      -1.64      -0.20      10.93
O       0.62       1.64       9.31
O      -2.62      -0.22       7.74
