11

Zn       6.65       6.34      17.52
O       7.28       4.51      17.98
C       7.40       7.24      14.81
C       8.26       7.97      19.12
C       4.69       7.05      19.65
N       4.95       7.05      18.35
O       8.16       7.56      17.89
C       3.81       7.49      17.69
C       5.45       6.27      14.65
C       6.29       3.69      17.79
N       6.45       6.65      15.52
