11

Zn       7.02       4.05      17.33
O       7.83       4.18      15.49
O       7.54       4.69      19.17
C       4.87       4.99      15.58
C       6.76       1.72      19.09
C       9.04       3.74      15.51
C       7.76       5.96      19.16
N       5.20       4.84      16.88
N       6.79       2.08      17.79
C       4.27       5.19      17.80
C       6.63       1.11      16.86
