20

Zn       6.95       8.89      32.00
Zn       9.74       8.89      31.99
C      12.46       9.71      31.17
C      12.46       8.08      32.82
C       4.22       9.71      31.18
C       4.22       8.08      32.82
N      11.79       8.89      31.99
N       4.90       8.89      32.00
O       7.21      10.93      31.96
O       9.48      10.93      31.96
O       9.48       8.89      29.93
O       7.20       8.89      29.94
O       9.48       6.84      32.00
O       7.21       6.84      32.00
C       8.34      11.51      31.96
O       7.21       8.88      34.04
C       8.34       8.89      29.36
O       9.48       8.87      34.04
C       8.34       6.26      32.00
C       8.34       8.87      34.62
