15

Cu       5.90       3.68       5.78
Cu       3.67       5.93       5.78
Cu       5.65       5.72       3.31
N       3.70       4.69       7.15
N       4.64       3.69       7.13
N       7.11       3.59       4.39
N       6.95       4.41       3.29
N       4.37       7.04       3.31
N       3.52       7.14       4.40
C       4.37       2.83       8.13
C       2.85       4.46       8.16
C       7.88       4.08       2.38
C       8.15       2.77       4.16
C       2.65       8.14       4.17
C       4.02       7.98       2.41
