40

Mg       3.35      10.50       3.10
Mg       9.13       8.75       6.59
Mg       3.07      10.71      -0.68
Mg       6.24      10.98       5.53
H       4.79      11.73       0.64
H       6.02       8.80       6.50
H       2.25      13.71      -0.78
H       5.40       9.26       3.07
H       3.90      12.42       1.79
H       7.08       7.98       5.62
H       6.46      10.46       3.20
H       1.35      12.38      -0.65
C       0.77      10.75       1.41
C       8.99      10.60       4.12
C       2.18      10.63      -3.64
C       4.41      13.16       4.32
C       3.96       8.28       1.01
C       8.06      11.31       8.00
C       3.49       9.62       6.06
C       5.37      12.42      -1.90
O       1.45      10.59       2.47
O       1.25      10.79       0.22
O       9.53       9.81       4.94
O       7.81      11.10       4.24
O       2.51      10.15      -2.52
O       8.59       6.98       5.72
O       5.31      12.69       5.08
O       3.63      12.46       3.58
O       3.63       8.90      -0.04
O       3.88       8.75       2.20
O       7.17      11.64       7.17
O       8.84      10.30       7.88
O       2.94       9.82       4.94
O       4.66      10.01       6.39
O      11.02       8.28       7.04
O       4.90      11.48      -1.16
O       5.58      10.13       3.50
O       2.15      12.78      -1.08
O       3.99      11.63       1.21
O       6.90       8.84       6.06
