20

Zn       7.82       6.00      23.25
O       7.94       7.19      24.97
O      10.11       7.78      25.31
Zn      10.62       6.61      23.67
O      10.37       4.96      24.87
O       8.19       4.43      24.52
O       8.26       4.92      21.57
C       9.30       4.31      25.13
C       9.51       4.89      21.28
O      10.44       5.42      21.96
O      10.26       8.22      22.44
O       8.07       7.73      22.14
C       9.13       8.38      21.88
C       5.15       5.84      24.50
C       5.05       6.38      22.24
C       8.86       7.80      25.60
C      13.33       5.72      24.47
C      13.37       7.44      22.91
N       5.78       6.04      23.32
N      12.67       6.61      23.71
