18

Al      -0.66       6.52      21.49
O       2.08       5.23      20.13
Al       2.67       6.46      21.51
O       2.18       8.01      20.49
O       1.01       6.42      22.35
H      -2.33       7.14      19.90
H       0.97       5.77      23.07
C      -2.27       8.25      23.17
C      -2.32       4.61      23.04
C       0.96       4.68      19.89
C       1.06       8.34      19.96
O       3.17       4.93      22.57
O      -1.14       7.98      22.64
O      -0.05       7.78      20.21
O      -1.22       5.19      22.76
O      -0.17       5.07      20.31
O       3.29       7.58      22.94
O      -2.32       6.54      20.66
