23

Zn      -1.24       9.35      14.40
Zn       0.43       7.82      16.59
Zn       0.30      10.96      16.65
Zn       1.97       9.41      14.28
O       0.40       9.41      15.46
O      -2.40       7.83      14.81
O       0.18       8.25      18.47
O      -1.23      12.13      16.27
O      -0.98       6.57      16.06
O      -2.32      10.97      14.64
O       0.20      10.52      18.57
O       1.92      12.02      16.35
O       1.51       9.30      12.35
O       3.05      11.03      14.63
O      -0.76       9.27      12.51
O       2.11       6.84      16.41
O       3.07       7.79      14.59
C      -2.07       6.76      15.43
C       0.24       9.35      19.13
C      -2.16      11.98      15.41
C       2.86      11.97      15.48
C       0.32       9.30      11.83
C       2.98       6.88      15.48
