20

Zn       5.66       7.66       9.75
Zn       5.75      10.48       9.76
O       5.31       7.86       7.70
O       6.36      10.08      11.68
O       5.96       7.85      11.80
O       5.08      10.11       7.84
O       3.69       8.10      10.07
O       7.68      10.23       9.11
O       7.65       7.98       9.45
O       3.77      10.36      10.34
C       5.14       9.01       7.19
C       4.67      13.23       9.96
C       5.65       4.94       8.57
C       6.94      13.20       9.49
C       6.15       9.00      12.32
C       3.16       9.25      10.17
C       8.24       9.10       9.29
C       5.60       4.92      10.89
N       5.62       5.61       9.74
N       5.80      12.54       9.73
