10

Al       3.86      20.85       4.03
O       4.93      21.05       5.60
O       4.92      22.10       3.07
O       4.91      19.35       3.41
O       2.81      22.12       4.99
O       2.80      19.40       4.64
O       2.81      21.05       2.42
C       5.89      21.85       5.81
C       5.86      21.88       2.25
C       5.86      18.79       4.04
