10

Al       4.02       6.16      10.67
O       2.95       5.23       9.39
O       2.95       5.52      12.13
O       2.95       7.75      10.51
O       5.08       4.58      10.47
O       5.08       7.13       9.41
O       5.08       6.77      12.15
C       2.01       6.15      12.73
C       2.01       7.95       9.66
C       2.01       4.39       9.64
