18

Al       5.80      20.54      20.18
O       6.28      21.94      21.40
Al       2.48      20.64      20.07
O       3.15      19.62      18.58
O       4.12      20.47      20.97
H       4.04      19.81      21.67
O       7.43      20.71      19.27
H       7.33      21.42      18.62
C       4.14      22.49      18.61
C       7.60      18.71      21.63
C       4.20      18.91      18.40
O       2.97      22.21      19.06
O       6.45      19.27      21.48
O       5.32      19.10      18.97
C       7.41      22.27      21.87
O       8.53      21.74      21.56
O       5.21      21.91      18.98
O       1.98      19.00      20.91
