26

Mn       9.32       8.44      18.05
Mn      12.41       7.78      20.43
C       7.83       9.50      16.16
C      13.90       6.72      22.32
N       9.97       6.86      16.61
N      11.76       9.36      21.87
N       8.84       9.89      19.65
N      12.89       6.32      18.83
O      10.34       7.20      20.43
O      11.39       9.01      18.04
O       8.47       6.82      19.24
O      13.26       9.40      19.23
O       8.95      10.00      16.54
O      12.78       6.21      21.94
O       7.31       8.49      16.73
O      14.42       7.73      21.74
C       9.27       5.72      16.44
C      12.47      10.50      22.04
C      10.93       7.14      15.71
C      10.80       9.07      22.77
C       9.26       6.56      20.21
C      12.47       9.66      18.26
C       7.88       9.70      20.58
C      13.85       6.51      17.89
C       9.56      11.03      19.71
C      12.17       5.19      18.77
