23

Zn      12.85      14.16      10.08
Zn      13.04      12.40       7.42
Zn      11.38      15.17       7.46
Zn      14.57      15.22       7.57
C      12.94      11.22      10.16
C      10.56      12.75       5.89
C      10.27      15.59      10.18
C      13.00      17.27       6.13
C      15.37      15.72      10.37
C      15.67      12.87       6.12
O      12.97      14.23       8.13
O      12.86      12.34      10.80
O      11.51      11.97       6.24
O      10.19      15.70       8.90
O      13.04      11.09       8.89
O      11.25      15.03      10.82
O      10.41      13.96       6.27
O      11.86      16.75       6.42
O      15.58      15.90       9.13
O      14.15      16.82       6.50
O      14.41      15.06      10.90
O      14.68      12.07       6.38
O      15.77      14.09       6.53
