18

Al      -2.80       4.50       6.12
Al       0.53       4.45       6.14
H      -1.08       6.08       6.78
H      -4.47       3.78       4.52
O      -3.27       6.35       5.83
O      -5.62       4.05       7.94
O      -0.09       2.66       5.96
O      -2.19       4.34       4.30
O      -2.30       2.68       6.43
O       0.04       4.79       4.25
O      -5.51       6.30       6.22
C      -4.41       6.91       5.96
C      -4.48       4.19       8.50
C      -1.21       2.09       6.13
C      -1.10       4.64       3.70
O      -3.43       4.62       7.88
O      -1.12       5.11       6.70
O      -4.45       3.92       5.48
