11

Zn      15.02      17.10       6.67
C      16.65      18.10       9.00
N      15.16      18.23       4.99
N      16.66      17.80       7.68
O      15.13      15.14       6.58
C      13.08      18.52       8.15
C      14.99      19.59       4.90
O      13.27      17.40       7.52
C      17.77      18.08       6.97
C      16.19      14.67       6.02
C      15.44      17.83       3.71
