14

Zn      10.28      -0.49       0.95
Zn       8.77       0.49      -0.95
C      11.41      -0.91      -1.52
C       7.64       0.91       1.52
C      10.75       2.26       0.15
C       8.30      -2.26      -0.15
O       8.66       0.27       1.94
O      11.71      -1.16      -0.32
O       7.34       1.16       0.32
O      11.11       1.35       0.98
O       7.94      -1.35      -0.98
O      10.39      -0.27      -1.94
O       9.79       2.20      -0.69
O       9.25      -2.20       0.69
