14

Zn       5.92       0.09       9.48
Zn       3.37      -0.23       9.17
O       6.04      -1.34       8.09
O       3.80      -1.65       7.78
O       3.55      -1.54      10.63
O       5.79      -1.36      10.97
O       3.18       1.26      10.57
O       5.44       1.50      10.80
O       5.83       1.49       7.94
O       3.59       1.15       7.79
C       5.03      -1.88       7.51
C       4.64      -1.84      11.23
C       4.22       1.79      11.08
C       4.68       1.72       7.44
