18

Al       6.04       5.27       5.65
O       5.46       6.53       6.96
Al       2.63       5.26       5.65
O       6.60       4.12       7.08
O       3.20       6.52       4.32
O       4.34       4.46       5.62
O       8.88       4.02       7.00
H       4.34       3.60       5.16
O       2.07       4.02       4.27
H       7.77       6.98       5.30
O       7.76       6.06       5.62
C       4.34       6.80       3.81
C       4.32       6.85       7.44
C       7.74       3.71       7.47
C       7.77       3.65       3.88
O       3.18       6.45       7.06
O       5.49       6.47       4.23
O       6.64       3.98       4.37
