19

Co       4.65       0.01      16.34
C       2.73       0.74      14.10
C       7.33       0.98      17.43
C       6.48       2.31      15.56
C       4.57      -2.17      18.43
N       3.73       1.26      17.99
N       5.56      -1.25      14.69
N       6.29       0.06      17.47
N       3.99      -1.59      17.31
N       3.00      -0.05      15.21
N       5.30       1.60      15.36
C       2.79       0.76      18.81
C       4.96      -2.39      14.33
C       6.50      -0.75      13.86
C       4.33       2.41      18.34
C       6.56      -0.73      18.57
C       1.96      -0.97      15.25
C       2.81      -2.30      17.12
C       4.72       2.18      14.25
