20

Zn       5.42       5.62       5.46
Zn       8.05       4.88       5.78
H       3.01       6.68       4.56
H       0.63       3.82       6.69
C       7.14       5.18       3.02
C       1.09       5.30       5.51
C       2.54       5.18       5.72
C       7.40       7.79       5.61
C       6.39       5.33       8.23
C       6.03       2.71       5.63
N       0.23       4.54       6.07
N       3.41       5.95       5.17
O       5.98       5.43       3.50
O       8.19       4.93       3.70
O       6.16       7.53       5.49
O       8.33       6.92       5.72
O       5.35       5.58       7.52
O       7.55       5.04       7.78
O       5.07       3.54       5.54
O       7.27       3.02       5.70
