14

O       2.68       1.95      34.91
O       0.40       1.92      34.83
Zn       0.69       0.01      34.94
Zn       3.43      -0.00      35.00
O       3.68       0.01      36.94
O       1.42       0.08      36.85
C       1.52      -2.50      34.91
C       2.52       0.03      37.49
C       2.71       0.03      32.46
C       1.54       2.52      34.84
O       0.39      -1.90      34.90
O       2.66      -1.95      35.00
O       3.85       0.02      33.07
O       1.59      -0.06      33.04
