27

Zn       3.62       2.64       8.60
N      -0.70      -3.50      10.34
N       3.50       0.70       7.96
Zn      -2.64      -3.61       9.70
N       3.38      -1.49       8.23
Zn       3.53      -3.53       9.15
N       1.49      -3.38      10.07
N       3.43      -0.32       8.82
N       0.32      -3.43       9.48
N       3.41      -1.30       6.93
N       1.29      -3.42      11.37
O      -2.51      -4.30       7.80
O       4.30       2.50      10.50
O       4.28      -2.99      10.94
O       2.98      -4.28       7.36
O      -4.05      -2.89      10.76
O       2.89       4.05       7.54
C      -2.78      -5.51       8.19
C       5.51       2.77      10.11
C       5.51      -3.18      10.57
C       3.18      -5.51       7.73
O       5.77       2.88       8.87
O      -2.89      -5.76       9.43
C       3.51       0.06       6.75
C      -0.07      -3.51      11.55
C      -4.31      -3.36      11.95
C       3.37       4.31       6.35
