13

C       8.95       6.69       6.78
N      12.01       8.30       6.02
C      12.39       9.48       5.47
C      12.39       9.35      10.34
N       9.38       7.65       7.67
Zn      11.34       7.98       7.91
C      12.39       5.63       9.74
C       8.26       8.21       8.17
N      12.07       6.19       8.56
C      12.16       7.38       5.00
C      12.20       5.17       7.64
C      12.09      10.82       8.78
N      11.90       9.49       9.09
