18

O       0.55      11.12      17.87
Al       2.22      11.90      18.02
Al      -1.12      11.90      18.00
C       3.89      10.60      15.96
C       3.90      10.05      19.56
C       0.55      13.23      20.02
C       0.56      13.78      16.45
H       3.90      13.66      18.06
H       0.56      10.21      17.53
O      -1.65      10.48      19.19
O       2.75      10.87      16.48
O       1.69      13.36      16.85
O       2.76      10.47      19.19
O       1.69      12.92      19.55
O      -1.66      10.87      16.47
O       3.90      12.69      18.12
O      -0.58      12.93      19.51
O      -0.59      13.35      16.81
