11

Zn       8.46       1.43      15.25
N       8.31       0.31      16.93
N       6.81       0.73      14.23
O       8.35       3.40      15.33
C      10.39       0.01      13.77
C       8.49      -1.06      17.02
C       6.83       0.44      12.92
O      10.20       1.13      14.39
C       5.71       0.45      14.95
C       7.28       3.87      15.90
C       8.03       0.70      18.20
