18

Al       5.16       5.50       5.59
O       5.70       4.22       4.27
Al       1.79       5.49       5.59
O       4.62       6.79       6.93
O       5.69       4.28       7.00
O       2.33       6.70       4.18
O       3.48       4.71       5.62
O       7.98       4.28       7.01
O       7.97       4.21       4.29
H       3.48       3.77       5.40
O       6.84       6.30       5.59
H       6.84       7.22       5.91
C       3.48       7.03       3.73
C       3.48       7.17       7.34
C       6.83       3.91       7.42
C       6.83       3.82       3.86
O       2.34       6.79       6.92
O       4.62       6.71       4.19
