10

Al       3.98      20.80      12.08
O       2.91      19.49      11.12
O       2.86      22.19      11.45
O       2.86      20.63      13.61
O       5.09      20.54      10.58
O       5.04      19.55      13.14
O       5.05      22.30      12.64
C       1.93      22.83      12.02
C       1.93      19.82      13.88
C       1.94      19.76      10.33
