23

Zn      12.92       7.46       2.41
Zn      13.48       9.21      -0.24
Zn      11.13       7.06      -0.24
Zn      14.17       6.10      -0.24
C      10.97       9.65      -1.70
C      12.00       4.67      -1.70
C      15.80       8.05      -1.70
O      12.92       7.46       0.43
O      11.09       7.66       3.09
O      13.67       5.77       3.09
O      14.01       8.95       3.09
C       9.99       7.48       2.45
C      14.37       4.91       2.45
C      14.41       9.99       2.45
O       9.88       7.00       1.27
O      14.84       5.05       1.27
O      14.05      10.33       1.27
O      12.15      10.06      -1.40
O      11.06       5.48      -1.40
O      15.57       6.83      -1.40
O      10.43       8.56      -1.33
O      13.22       4.76      -1.33
O      15.12       9.06      -1.33
