20

Zn       8.85       6.66      13.87
Zn       6.12       6.57      14.14
C       7.38       9.23      14.02
C       7.65       4.00      13.99
C       7.22       6.63      11.38
C       7.70       6.59      16.64
C       3.53       5.52      15.16
C      11.45       7.71      12.86
C       3.32       7.16      13.52
C      11.66       6.06      14.49
N      10.90       6.81      13.72
N       4.08       6.41      14.30
O       8.51       8.68      13.82
O       6.51       4.56      14.04
O       6.27       8.62      14.20
O       8.77       4.61      13.96
O       8.40       6.59      11.85
O       6.52       6.48      16.18
O       6.14       6.68      12.06
O       8.76       6.71      15.95
