15

N      29.49      10.19      19.84
N      29.98      10.67      21.04
N      28.56      13.76      22.46
Cu      27.97      10.95      19.12
N      27.38      14.28      21.94
Cu      29.26      12.22      21.73
Cu      26.68      13.56      20.40
C      28.93      14.51      23.51
C      30.23       9.14      19.47
C      25.72      11.30      17.30
C      24.92      13.23      18.08
C      31.01       9.90      21.41
C      27.03      15.33      22.70
N      25.95      12.86      18.85
N      26.45      11.67      18.36
