54

Hf      11.81      15.11      13.86
Hf      10.92      13.09      16.59
Hf      14.99      15.59      15.26
Hf      13.78      12.33      14.72
Hf      12.13      16.33      17.14
Hf      14.11      13.57      17.98
H      11.09      12.38      13.87
H      12.99      17.53      14.76
H      16.15      13.17      16.05
H      11.64      14.31      19.06
C      14.01      16.92      12.46
C       8.92      13.81      14.10
C      12.62      12.71      11.79
C      10.30      17.76      14.98
C      11.97      11.63      19.30
C      16.92      15.02      17.83
C      11.36      10.22      15.31
C       9.32      15.22      18.34
C      14.63      18.39      16.70
C      16.51      13.51      13.39
C      15.49      10.82      16.93
C      13.45      16.04      20.01
O      14.93      16.74      13.30
O       9.08      13.24      15.22
O      12.04      13.83      11.97
O      10.55      16.99      14.00
O      10.82      17.74      16.15
O      13.31      12.05      12.64
O       9.78      14.53      13.47
O      12.85      16.37      12.45
O      11.29      14.97      15.85
O      13.67      14.35      14.29
O      11.63      12.94      14.46
O      12.98      16.61      15.08
O      11.02      11.84      18.48
O      16.78      15.57      16.69
O      12.50      10.44      14.80
O      10.13      16.18      18.20
O      13.48      18.18      17.19
O      15.72      12.53      13.55
O      15.27      11.62      17.88
O      14.00      14.91      19.83
O      15.00      10.87      15.74
O      12.68      16.66      19.19
O      10.66      11.05      16.00
O      16.46      14.66      13.97
O      15.29      17.61      15.92
O       9.39      14.06      17.79
O      13.11      12.21      19.34
O      16.11      14.22      18.41
O      13.94      15.37      17.01
O      12.93      12.67      16.55
O      15.23      13.49      16.01
O      12.00      14.32      18.16
