23

Zn      12.82      13.96      10.06
Zn      13.00      12.30       7.43
Zn      11.28      15.03       7.37
Zn      14.38      15.24       7.58
C      12.85      11.03      10.07
C      10.57      12.63       5.82
C      10.25      15.37      10.12
C      12.79      17.19       6.06
C      15.17      15.59      10.32
C      15.63      12.95       6.22
O      12.85      14.12       8.10
O      12.65      12.12      10.71
O      11.39      11.83       6.37
O      10.04      15.33       8.86
O      13.06      10.90       8.82
O      11.29      14.99      10.75
O      10.48      13.88       5.97
O      11.67      16.73       6.51
O      14.92      16.22       9.24
O      13.96      16.68       6.31
O      14.65      14.49      10.67
O      14.58      12.20       6.28
O      15.76      14.10       6.79
