20

Zn       8.79       8.06       9.67
Zn       5.77       8.05       9.67
C       7.30       5.47       9.75
C       7.30      10.62       9.49
C       3.03       6.90      10.05
C      11.53       8.51       8.63
C       3.01       9.14       9.33
C      11.51       7.48      10.73
C       7.26       8.21      12.26
C       7.29       7.85       7.07
N       3.72       8.02       9.68
N      10.82       8.00       9.67
O       8.40       6.04       9.49
O       6.22       9.98       9.22
O       8.40      10.08       9.80
O       6.22       6.10      10.07
O       8.34       7.85      11.68
O       6.21       7.57       7.65
O       8.36       8.24       7.64
O       6.19       8.53      11.67
