36

Zn      -1.26      -2.22       8.63
Zn      -3.66      -6.19       8.48
Zn      -1.06      -4.96       6.84
Zn      -3.74      -3.54      10.31
C      -3.05      -3.41       5.15
N      -2.46      -2.46       7.04
N      -1.83      -6.24       9.32
N       0.51      -3.68       6.77
N      -4.70      -5.19      11.02
N      -4.70      -6.32      10.23
N       0.48      -2.59       7.60
N      -1.88      -3.86      10.94
N      -0.73      -5.89       8.59
N      -4.74      -4.68       7.80
N      -1.94      -6.66       6.07
N      -3.51      -1.50      10.41
N      -2.96      -7.17       6.83
N      -2.56      -0.93       9.60
N      -4.78      -3.57       8.58
N      -2.41      -3.61       6.32
N      -0.84      -3.30      10.26
C      -3.13      -1.54       6.33
C       0.25      -3.32      11.06
C      -1.51      -7.30      10.09
C       1.76      -3.80       6.28
C      -5.44      -5.45      12.11
C      -5.44      -7.26      10.85
C       1.71      -2.05       7.62
C      -1.45      -4.22      12.16
C      -5.83      -4.70       7.01
C       0.27      -6.73       8.91
C      -1.69      -7.53       5.07
C      -4.38      -0.55      10.79
C      -3.30      -8.36       6.30
C      -2.86       0.38       9.48
C      -5.90      -2.88       8.27
