11

Br       4.02       8.16       7.70
Cu       1.64       8.13       7.11
C      -0.61       6.42       7.72
N       0.82       9.77       7.88
C       2.35       6.71       4.71
N       1.65       7.78       5.15
C       1.01       8.55       4.23
C       1.28       5.67       8.82
N       0.71       6.54       7.95
C      -0.52       9.90       7.85
C       1.52      10.67       8.62
