14

Zn      -4.07       7.13       0.00
Zn      -5.35       9.35      -0.00
C      -4.73       8.21      -2.60
C      -6.96       6.95       0.02
C      -4.70       8.23       2.60
C      -2.48       9.56      -0.03
O      -4.15       7.22      -2.02
O      -5.29       9.20      -2.01
O      -7.03       8.23       0.01
O      -5.89       6.26       0.02
O      -5.26       9.21       2.01
O      -4.12       7.24       2.02
O      -2.42       8.28      -0.02
O      -3.55      10.26      -0.02
