20

Co       4.39       7.72       0.47
O       4.89       6.70       2.18
Co       6.14       6.51      -0.47
O       5.64       7.54      -2.18
O       6.54       5.49       1.22
O       3.99       8.75      -1.22
O       5.74       9.15       0.98
O       4.78       5.08      -0.98
O       7.42       7.93       0.10
O       3.11       6.30      -0.10
C       5.81       5.82       2.22
C       4.72       8.42      -2.21
C       6.98       8.92       0.77
C       3.55       5.31      -0.77
C       3.17       9.39       2.88
C       7.35       4.84      -2.88
N       2.96       8.76       1.73
N       7.57       5.47      -1.73
N       1.68       9.00       1.32
N       8.85       5.23      -1.32
