18

Al       0.72       9.16      12.71
Al       4.06       9.13      12.73
O       1.26      10.56      11.50
O       1.25      10.24      14.22
O       0.18       8.09      11.20
O       3.53      10.20      14.24
O      -2.10       8.05      11.22
O       4.60       7.73      13.93
O       2.39       8.35      12.63
O      -0.96       9.94      12.81
H       2.38       7.46      12.24
H      -0.97      10.83      13.19
C       2.39      10.54      14.70
C      -0.96       7.75      10.74
C       2.40      10.97      11.12
C      -0.95       7.32      14.31
O       3.53      10.53      11.53
O       0.18       7.76      13.90
