13

C      12.70      29.45      13.76
N      12.89      30.39      12.77
C      12.59      31.29       8.29
C      15.84      29.78       9.18
C      12.39      27.26      10.94
N      12.77      28.32      10.20
C      12.39      31.53      13.27
C      12.39      32.88       9.74
C      12.63      27.90       8.89
N      15.41      30.07      10.46
Zn      13.44      30.12      10.87
C      16.52      30.23      11.20
N      12.71      31.57       9.64
