23

Zn       9.73      18.66      18.65
Zn       7.94      20.27      20.73
Zn       8.11      17.04      20.74
Zn       6.41      18.63      18.53
O       8.04      18.65      19.63
O      10.70      20.33      18.90
O       7.48      19.71      22.59
O       9.59      15.83      20.35
O       9.65      21.21      20.72
O      10.93      17.19      19.12
O       8.41      17.63      22.63
O       6.44      16.07      20.58
O       7.02      18.90      16.65
O       5.41      16.96      18.77
O       9.23      18.33      16.75
O       6.54      21.50      20.18
O       5.22      20.14      18.91
C      10.57      21.20      19.84
C       7.92      18.67      23.17
C      10.67      16.10      19.73
C       5.52      16.10      19.70
C       8.16      18.63      16.14
C       5.47      21.23      19.53
