15

C      21.03       1.24      10.64
Cu      20.20       4.48      12.73
C      22.08       2.27      12.29
Cu      17.47       5.65      11.58
Cu      18.71       2.99      10.37
C      16.30       3.20       8.71
C      19.89       6.81      14.47
C      15.47       5.09       9.51
C      17.98       7.61      13.70
N      20.95       2.95      12.02
N      20.30       2.31      10.99
N      17.12       3.63       9.69
N      16.60       4.81      10.19
N      18.30       6.51      12.98
N      19.48       6.01      13.47
