14

Zn      -2.32       8.29      15.01
O      -3.06       8.46      18.48
O      -3.82       9.69      14.31
Zn      -3.81       9.43      16.96
C      -4.77      10.41      14.74
C      -2.12       7.69      18.07
C      -4.46       6.80      15.28
C      -1.28      10.66      15.59
O      -5.07      10.56      15.99
O      -1.70       7.60      16.87
O      -3.39       6.74      14.55
O      -2.11      10.59      16.56
O      -4.67       7.69      16.17
O      -1.04       9.71      14.76
