18

Al       5.34       6.43       5.71
O       4.78       5.18       7.10
Al       2.03       6.37       5.59
O       1.52       7.38       4.03
O       5.86       7.73       7.05
O       2.61       5.01       4.37
O       3.68       7.23       5.65
O       6.98       5.60       5.75
H       3.62       8.02       6.22
H       6.98       4.75       6.22
C       3.76       4.71       3.92
C       7.03       8.19       7.33
C       3.63       4.90       7.58
C       6.97       7.77       3.67
O       2.51       5.26       7.11
O       5.89       7.61       4.30
O       4.85       5.21       4.33
O       8.10       7.82       6.74
