15

C       4.10       5.28      14.71
Cu       1.92       4.39      11.54
Cu       3.53       2.15       9.94
C       2.18       6.06      13.93
Cu       4.61       3.20      12.73
C       5.78       0.30      10.31
C       6.51       1.02      12.27
C       0.15       4.07       9.22
C       1.38       2.67       8.03
N       2.59       5.08      13.11
N       3.78       4.59      13.60
N       5.46       1.79      11.91
N       5.01       1.34      10.69
N       2.02       2.89       9.19
N       1.26       3.77       9.93
