23

Zn       7.54       8.99      15.57
Zn       7.36      10.78      18.25
Zn       9.02      11.84      15.72
Zn       5.85      11.73      15.60
O       7.44      10.82      16.28
O       7.53       7.65      17.01
O       8.88      11.73      19.04
O      10.24      10.75      14.65
O       7.37       8.93      18.91
O       9.20       8.71      14.55
O      10.07      12.50      17.26
O       8.57      13.43      14.66
O       4.81      10.55      14.39
O       6.29      13.33      14.55
O       6.02       8.63      14.38
O       5.72      11.61      18.91
O       4.62      12.29      17.02
C       7.45       7.82      18.28
C       9.87      12.36      18.53
C      10.15       9.53      14.29
C       7.42      13.85      14.29
C       5.03       9.33      14.01
C       4.75      12.16      18.29
