36

Zn      -1.38      -2.58       8.86
Zn      -3.96      -6.43       8.73
Zn      -1.45      -5.29       7.01
C      -2.67      -9.09       7.77
Zn      -4.00      -3.70      10.48
C      -6.97      -4.63      10.88
C       0.49      -6.13       9.16
C       0.44      -3.56       5.29
C      -2.34      -5.48      12.33
C      -2.30      -7.33      11.12
N      -0.25      -2.58       7.14
N      -5.69      -6.01       9.74
N      -3.29      -4.71       6.47
N      -4.29      -2.70       8.76
N      -4.33      -5.22       7.17
N      -3.19      -2.21       8.13
N      -5.72      -4.83      10.45
N      -0.32      -3.73       6.38
N      -2.83      -7.75       7.67
N      -1.83      -1.68      10.65
N      -0.56      -5.37       8.81
N      -2.87      -5.21      11.13
N      -2.84      -6.34      10.38
N      -0.53      -4.24       9.56
N      -2.95      -2.13      11.31
N      -1.84      -7.28       6.84
C       0.57      -1.72       6.50
C       0.54      -4.29      10.37
C      -3.09      -1.39      12.43
C      -6.94      -6.52       9.74
C      -1.08      -8.32       6.42
C      -3.73      -4.34       5.26
C      -5.32      -1.87       8.52
C      -5.43      -5.18       6.40
C      -1.30      -0.67      11.37
C      -3.53      -1.06       7.51
