38

C       3.01       0.40      20.07
Cd       0.00      -1.47      23.54
Cd       0.00       1.47      20.79
C       3.02      -2.22      22.84
C       3.01      -0.40      24.26
H      -2.43       2.95      22.05
H       6.87       3.03      22.08
H       6.90      -0.38      19.41
H      -2.41      -0.32      19.52
C      -0.00       2.84      18.37
C       0.00      -2.17      20.74
H       2.43       2.95      22.05
H       4.90       3.03      22.08
H       4.88      -0.38      19.41
H       2.41      -0.32      19.52
C      -0.00      -2.84      25.96
C      -0.00       2.17      23.59
N      -2.33      -1.31      23.53
N      -2.33       1.31      20.80
N       2.33       1.31      20.80
N       2.33      -1.31      23.53
O      -0.00       3.43      19.50
O       0.00      -2.96      21.74
O       0.00      -0.90      20.90
C      -3.02      -2.22      22.84
C      -3.01      -0.40      24.26
O      -0.00      -3.43      24.83
O      -0.00       2.96      22.59
O      -0.00       0.90      23.43
C      -3.02       2.22      21.49
C       7.36       2.26      21.49
C       6.63       1.32      20.75
C       7.38       0.38      20.02
C      -3.01       0.40      20.07
C       3.02       2.22      21.49
C       4.41       2.26      21.49
C       5.15       1.32      20.75
C       4.40       0.38      20.02
