23

Zn      18.51      12.56       9.80
Zn      16.93      11.51       7.26
Zn      20.13      11.57       7.18
Zn      18.42      14.33       7.11
C      15.97      11.13      10.03
C      18.53       9.42       5.92
C      21.07      11.13       9.98
C      21.01      13.90       5.66
C      18.46      15.52       9.82
C      15.93      13.83       5.69
O      18.53      12.50       7.84
O      16.95      11.71      10.61
O      17.39       9.89       6.27
O      21.22      11.00       8.72
O      15.82      10.97       8.77
O      20.09      11.70      10.57
O      19.68       9.92       6.17
O      21.22      12.68       5.99
O      18.42      15.68       8.55
O      20.03      14.62       6.02
O      18.51      14.41      10.44
O      15.88      12.61       6.04
O      16.83      14.67       6.02
