20

Zn       6.49       5.52      11.10
Zn       3.77       5.64      11.04
C       5.22       8.19      11.04
C       5.22       5.57      13.66
C       4.87       2.97      11.09
C       5.20       5.53       8.48
C       9.36       4.54      10.58
C      10.60       6.67      11.52
C      10.75       4.58      10.60
C       9.21       6.63      11.51
N       8.60       5.53      11.03
N      11.36       5.68      11.08
O       6.31       7.59      11.32
O       4.12       7.63      10.73
O       4.14       5.83      13.03
O       6.35       5.35      13.12
O       3.76       3.57      11.24
O       6.00       3.53      10.93
O       6.29       5.74       9.09
O       4.06       5.33       9.02
