66

Zr       3.50       1.43       2.18
Zr       7.80      -0.25       0.34
Zr       6.75       2.75       1.81
Zr       4.52      -1.59       0.62
Zr       5.05       1.54      -1.08
Zr       6.32      -0.40       3.51
O       2.87       1.16       4.16
O       2.16       2.58       0.81
O       3.29       3.53       3.01
O       2.35      -1.82       1.27
O       5.38       4.44       2.88
O       1.59       0.22       1.98
O       3.17       2.73      -1.23
O       5.02       2.29       0.95
O       3.51       0.39       0.13
O       5.56       1.78       3.44
O       4.55      -0.32       2.34
O       4.50      -3.23       2.00
O       5.66       3.81      -1.41
O       5.89      -0.28      -0.38
O       7.23       1.84      -0.31
O       7.38       0.75       2.06
O       6.62      -1.65       1.61
O       6.98       4.50       0.67
O       9.09       3.01       1.51
O       9.81       1.16       0.40
H       7.79       2.33      -0.94
O       9.32      -1.35       1.54
H       6.95      -2.55       1.70
O       7.75       3.83       3.63
H       5.51       2.18       4.32
H       8.63       4.12       3.31
O       9.07      -0.15      -1.61
H       3.59      -3.47       2.23
H       6.59      -3.14       4.14
O       3.50      -2.02      -1.17
O       7.84      -2.22      -0.78
H       6.35       2.36      -3.24
H       5.11      -0.01       5.89
O       5.77      -3.14      -0.50
H       9.94       0.20      -1.31
O       3.86       0.14      -2.45
O       5.90       1.56      -2.92
H       2.53       1.94       4.63
H       9.16      -1.08      -1.90
H       7.90       4.71       0.42
H       6.13       4.22      -0.59
H       7.16       4.62       3.70
H       3.71      -0.81      -2.07
H       3.86       0.28       4.85
H       5.22      -2.95       3.20
H       2.65       0.27      -0.30
C       2.19       2.90      -0.42
C       1.47      -1.02       1.74
C       4.14       4.45       3.20
C       9.91       2.38       0.75
C       9.31      -1.74       2.76
C       6.92      -3.11      -1.00
O       4.65      -0.35       5.10
H       4.88       4.35      -1.62
O       7.15       0.28       5.23
H       8.09       0.07       5.39
O       5.81      -2.57       4.02
H       4.41       0.12      -3.26
O       8.40      -1.52       3.62
H       2.56      -2.27      -1.10
