11

Zn       9.32       4.07      12.88
N       9.58       2.08      13.31
O       8.54       4.20      11.03
C      12.07       5.23      13.37
C      11.53       4.92      11.15
O       8.82       4.67      14.72
C       9.69       1.10      12.38
C       9.68       1.72      14.61
C       7.33       3.75      11.07
C       8.60       5.95      14.68
N      11.17       4.83      12.45
