23

O       9.17       1.08      10.77
Zn      12.44      -1.57       8.81
Zn      11.83       1.57       8.81
O      13.26       0.20      13.00
O      14.18      -2.40       9.15
Zn      10.56      -0.26      11.10
Zn      13.71       0.26      11.10
O      15.09      -1.08      10.77
O      11.01      -0.20      13.00
O      10.09       2.40       9.15
O      12.34      -1.12       6.91
C      14.19       2.95       9.96
C      10.08      -2.95       9.96
C      12.13       0.00       6.33
C       9.16       2.07       9.96
C      12.13       0.00      13.59
C      15.11      -2.07       9.96
O      13.21       2.96       9.15
O       9.73      -2.03      10.77
O      14.53       2.03      10.77
O      11.06      -2.96       9.15
O      12.13       0.00       9.96
O      11.93       1.12       6.91
