10

Al       0.01      15.14       2.91
C      -1.97      13.37       3.95
O      -1.04      15.77       1.44
O      -1.04      13.54       3.10
O      -1.04      16.10       4.20
O       1.07      14.47       1.45
O       1.07      16.73       3.07
O       1.07      14.20       4.22
C      -1.97      15.12       0.86
C      -1.97      16.92       3.93
