24

Al       8.12      10.88       0.37
Al       6.50      13.62       0.46
Al       4.96      11.07       0.35
O       7.21       9.51       1.36
O       7.80      13.92       1.78
O       3.97      12.17       1.58
O       8.56      11.81       2.02
H      10.36      10.19       0.03
O       5.03       9.87       1.77
O       6.52      11.88       0.36
O       8.97      12.30      -0.71
O       5.25      14.02       1.77
O       5.26       9.72      -0.92
O       5.20      13.95      -0.92
C       8.41      12.99       2.45
C       4.39      13.19       2.26
C       6.20       9.45       2.15
C       8.65      13.42      -1.21
O       7.47      10.09      -1.35
C       6.33       9.63      -1.64
O       7.73      14.21      -0.80
C       4.44      13.12      -1.52
O       4.08      11.97      -1.06
O       9.55       9.85       0.42
