12

N       6.16       4.29       8.11
Zn       4.10       4.18       8.12
N       6.83       3.27       7.90
O       4.36       2.07       8.08
O       4.00       4.09       6.07
O       3.32       6.07       8.03
H       6.80       5.12       8.20
O       3.68       4.05      10.09
C       3.43       1.25       7.79
C       2.90       4.11       5.45
C       2.08       6.30       8.14
C       2.61       3.51      10.53
