23

Zn      10.41       7.86       3.59
Zn       8.81       5.07       3.59
Zn      10.40       6.02       6.22
Zn      12.02       5.08       3.61
C      10.40       8.98       6.31
C      10.44       3.05       2.17
C      12.94       4.54       6.37
C       7.84       7.46       2.16
C      12.98       7.46       2.16
C       7.84       4.52       6.32
O      10.41       6.01       4.25
O      10.41       9.18       5.05
O       9.30       3.52       2.49
O      10.40       7.85       6.91
O      11.59       3.51       2.50
O      11.97       5.11       6.98
O       7.67       6.24       2.48
O      13.11       4.45       5.11
O       8.82       8.21       2.49
O      13.15       6.24       2.50
O       7.67       4.42       5.05
O      11.99       8.21       2.49
O       8.81       5.10       6.92
