20

C      27.42       8.92       9.51
Zn      24.69       9.83       8.68
Zn      26.91      10.54       7.09
C      23.45       9.01      11.22
C      22.05       8.62       9.42
C      26.08      12.38       9.29
C      25.66       8.01       6.44
C      28.84      12.53       6.08
C      28.77      10.61       4.78
N      23.21       9.10       9.90
N      28.35      11.30       5.85
O      23.46      10.67       7.26
O      25.30      11.55       6.27
O      27.93       9.32       8.41
O      26.23       9.12       9.90
O      27.03      12.07       8.49
O      25.04      11.68       9.52
O      26.48       8.86       5.95
O      24.95       8.19       7.48
C      24.04      11.41       6.39
