20

Zn       4.35       6.57       8.43
Zn       7.24       6.62       8.64
C       5.86       3.99       8.77
C       5.75       9.17       8.64
C       9.92       6.26       7.58
C       1.67       7.62       8.90
C      10.04       7.19       9.72
C       1.55       5.57       7.80
C       5.96       6.45       5.97
C       5.62       6.50      11.13
N       9.29       6.70       8.69
N       2.30       6.56       8.34
O       4.80       4.51       8.26
O       6.86       8.63       8.32
O       6.91       4.61       9.08
O       4.63       8.57       8.77
O       4.82       6.74       6.44
O       6.72       6.93      10.63
O       7.01       6.19       6.65
O       4.56       6.28      10.47
