23

Zn       9.27      24.22      14.17
Zn      10.84      27.03      14.21
O      11.06      23.85      13.42
Zn       9.22      26.06      16.76
O       9.25      26.07      14.81
Zn       7.65      26.98      14.16
O       8.91      22.99      15.68
O      11.73      25.95      12.82
O       9.70      24.26      17.40
O       6.42      25.62      13.43
O       7.89      24.01      12.77
O      10.51      27.39      17.43
O      12.05      27.33      15.74
O       8.18      28.26      12.76
O      10.30      28.76      13.45
O       7.41      26.54      17.36
O       6.77      27.92      15.66
C      11.79      24.67      12.76
C       9.31      23.16      16.88
C       6.75      24.58      12.77
C      11.67      27.60      16.93
C       9.24      28.97      12.75
C       6.68      27.46      16.85
