20

Zn       6.75       8.08       1.05
Zn       6.50       5.36       0.93
N       6.85      10.13       0.88
N       6.56       3.30       0.92
O       6.69       7.69      -0.99
O       6.43       5.44      -1.12
O       4.50       5.88       0.98
O       4.71       8.13       1.04
O       6.59       5.42       2.96
O       6.73       7.68       3.10
O       8.77       7.87       1.10
O       8.56       5.62       0.89
C       6.55       6.60      -1.63
C       4.03       7.06       1.02
C       6.67       6.52       3.61
C       9.25       6.69       1.00
C       6.05      10.76       0.01
C       7.66      10.81       1.70
C       7.35       2.66       1.79
C       5.84       2.62       0.00
