15

Cu       5.30       5.29      19.03
Cu       2.96       5.26      16.89
Cu       5.18       2.95      16.90
N       2.94       6.54      18.21
N       3.99       6.59      19.11
N       6.55       3.93      19.11
N       6.46       2.88      18.23
N       3.86       2.94      15.61
N       2.91       3.94      15.60
C       3.70       7.50      20.05
C       2.01       7.43      18.61
C       7.30       1.91      18.63
C       7.45       3.61      20.06
C       1.99       3.64      14.67
C       3.53       2.03      14.68
