15

Cu      19.34       5.36       3.15
Cu      21.58       5.38       5.41
Cu      19.33       3.12       5.40
N      21.61       6.68       4.10
N      20.64       6.67       3.12
N      18.03       4.06       3.12
N      18.03       3.09       4.10
C      20.88       7.69       2.28
N      20.62       3.11       6.72
C      22.45       7.70       3.86
C      17.01       2.25       3.85
N      21.60       4.08       6.72
C      17.02       3.82       2.27
C      22.43       3.85       7.75
C      20.85       2.27       7.74
