36

Zn       1.56       2.90       8.96
Zn       4.13       6.71       8.99
Zn       1.68       5.59       7.06
Zn       4.18       3.84      10.66
C       6.13       3.18       8.50
C      -1.17       4.59       6.34
C       3.45       3.83       5.47
C       5.87       5.68      12.62
C       5.47       7.62      11.67
N       2.81       2.94       7.37
N       5.36       5.23       8.41
N       2.77       7.15       6.37
N       3.78       1.82      10.58
N       3.76       7.64       7.18
N       2.60       1.45       9.97
N       5.13       3.98       8.90
N       2.99       4.11       6.70
N       2.22       6.85       9.60
N       1.28       4.07      10.56
N       0.04       4.41       6.89
N       5.22       5.45      11.46
N       4.97       6.67      10.87
N      -0.05       3.41       7.83
N       2.36       4.25      11.38
N       1.21       6.47       8.78
C       3.15       1.93       6.57
C      -1.31       2.97       7.86
C       1.92       4.45      12.64
C       6.52       5.24       7.73
C       0.10       7.16       9.10
C       2.83       7.79       5.19
C       4.46       0.72      10.93
C       4.43       8.59       6.49
C       0.17       4.18      11.30
C       2.56       0.11       9.96
C       1.75       7.79      10.45
