14

O      10.21       1.55       0.34
O       8.61       0.38      -1.86
O       7.41       1.30      -0.15
Zn      10.21      -0.75      -1.10
Zn       8.65       0.26       0.92
O       8.03      -1.63       0.34
O       9.70      -0.38       2.43
O       9.38      -2.50      -1.27
C      11.16       1.62      -0.48
C       7.72       1.14      -1.39
O      11.06      -1.22       0.80
C       8.38      -2.54      -0.47
C      10.77      -0.95       2.00
O      11.48       0.71      -1.33
