14

Zn       8.42      13.86       6.64
Zn      10.06      12.92       8.57
O       7.58      14.23       8.58
O      11.56      12.38       7.41
O       9.00      13.42      10.16
O      10.21      13.11       5.73
O       7.33      12.25       6.41
O      10.39      14.86       8.11
O       8.78      11.48       7.96
O       9.01      15.73       6.56
C       7.95      14.04       9.77
C      11.28      12.60       6.17
C       7.74      11.35       7.24
C       9.97      15.84       7.41
