43

Zn       8.25       5.12       0.83
Zn      10.76      10.64      -0.83
Zn       8.15       7.48       2.95
C       5.16       5.44       1.12
Zn      10.95       6.28       2.30
Zn      10.86       8.28      -2.95
Zn       9.50       7.88       0.00
N       6.42       6.54       2.56
Zn       8.06       9.48      -2.30
N       6.43       5.68       1.49
N      12.58      10.08      -1.49
N      12.96       6.22       2.08
C      13.85      10.32      -1.12
O       9.24       6.69       1.52
O       9.77       9.08      -1.52
N      12.58       9.22      -2.56
N       6.05       9.54      -2.08
O       8.15       4.87      -1.13
O      10.86      10.89       1.13
O      10.98       6.75       4.27
O       8.03       9.01      -4.27
O       8.83       7.24       4.78
O      10.18       8.52      -4.78
O       9.05       3.42       1.42
O       9.96      12.34      -1.42
O      10.82       4.25       2.59
C      13.86       8.94      -2.89
O       7.98       9.44       2.88
O      11.03       6.32      -2.88
O       8.19      11.51      -2.59
C       7.80       5.90      -1.81
C      11.21       9.86       1.81
C      13.67       5.79       3.14
C       5.34       9.97      -3.14
C      13.63       6.60       0.97
C       5.38       9.17      -0.97
C      10.06       7.06       5.08
C       8.95       8.70      -5.08
C      10.17       3.31       2.03
C       8.84      12.45      -2.03
C       7.78      10.01       1.74
C      11.23       5.75      -1.74
C       5.15       6.82       2.89
