20

Zn      11.22       2.31       7.87
Zn      13.40       4.08       7.89
H       8.95       1.15       7.41
H      10.09       0.03       7.41
O      10.72       3.32       9.58
O       9.77       0.88       7.87
O      11.95       5.14       9.04
O      10.40       3.69       6.56
O      12.35       4.82       6.29
O      13.88       3.08       9.60
O      12.65       1.27       9.05
O      14.22       2.71       6.59
O      12.27       1.58       6.30
O      14.85       5.52       7.87
H      14.54       6.37       7.41
C      11.12       4.51       9.80
C      11.15       4.53       5.97
C      13.49       1.89       9.81
C      13.48       1.86       5.99
H      15.66       5.23       7.42
