37

Zn      -9.09       5.02      15.87
Zn     -11.46       0.44      16.07
Zn     -11.39       3.48      14.18
Zn      -8.54       1.31      17.61
C     -10.77       7.38      15.09
C      -9.40      -0.95      14.35
C     -11.79      -0.83      18.86
C      -7.54       4.30      13.37
C     -13.43       3.98      16.28
C      -5.56       1.84      18.43
C      -8.82       3.40      19.68
C     -12.13       1.37      11.93
C     -13.35       2.15      17.53
C      -8.23       5.20      18.52
C     -12.53      -0.27      13.38
C      -9.94      -0.13      19.88
C      -9.01       2.85      12.51
C     -12.06       6.50      13.51
C      -7.53      -0.25      15.33
C      -7.69       6.36      17.90
N     -10.64       6.04      15.14
N      -6.50       2.81      16.66
N      -8.91       4.33      17.71
N     -12.39       0.89      14.06
N      -9.84       0.16      18.58
N      -9.44       3.21      13.73
N     -11.44       5.50      14.15
N      -8.57       0.49      15.78
N      -9.71       0.06      15.17
N     -10.98      -0.28      17.94
N      -8.52       4.10      14.26
N     -12.32       3.28      15.95
N      -6.69       1.95      17.71
N      -9.24       3.24      18.39
N     -12.15       1.88      13.19
N     -12.28       2.15      16.72
O      -7.86       6.57      16.67
