30

Ni       1.93      12.84       0.80
Ni      -3.08      11.61      -0.80
O       2.49      14.23      -0.56
O      -2.51      10.22       0.56
H       3.65      11.70      -0.44
H      -1.36      12.75       0.44
C      -0.14      11.99      -1.44
C       4.86      12.46       1.44
C       2.38      12.25      -1.92
C      -2.63      12.20       1.92
C       2.39      13.79      -1.76
C      -2.61      10.66       1.76
C      -3.18       9.74      -3.11
C       1.82      14.72       3.11
C      -4.98       9.52      -1.67
C       0.02      14.93       1.67
C       1.62      11.28       3.32
C      -3.38      13.17      -3.32
C       0.71      10.20       1.50
C      -4.29      14.25      -1.50
N      -3.83      10.14      -2.00
N       1.17      14.31       2.00
N       1.37      11.27       2.00
N      -3.63      13.19      -2.00
O       0.05      12.58      -0.31
O       5.05      11.87       0.31
O      -1.27      11.56      -1.82
O       3.74      12.89       1.82
O       2.67      11.56      -0.69
O      -2.33      12.89       0.69
