18

Al       5.84       6.45       8.69
Al       2.51       6.55       8.80
O       3.06       7.80      10.14
O       6.35       5.30       7.23
H       4.07       4.91       8.08
H       7.48       8.16       8.25
O       5.30       7.81       7.39
O       8.67       5.38      10.23
C       4.16       8.16       6.95
C       7.54       4.89      10.53
C       4.24       8.03      10.61
C       7.53       4.91       6.89
O       5.31       7.54      10.13
O       8.61       5.23       7.49
O       6.43       5.13       9.97
O       3.02       7.80       7.38
O       4.15       5.69       8.66
O       7.50       7.31       8.71
