11

Zn       3.71      17.47       7.61
O       2.65      16.23       6.47
O       2.69      17.83       9.26
C       3.14      19.55       5.66
C       3.46      18.62       9.96
C       5.41      19.49       6.17
C       1.48      16.50       6.00
C       6.38      16.54       8.59
C       5.06      14.86       7.70
N       4.16      19.00       6.35
N       5.23      16.16       8.01
