23

Zn      16.33      16.34      22.48
Zn      17.82      15.38      25.12
Zn      16.09      18.10      25.14
Zn      14.64      15.25      25.00
C      18.92      14.94      22.42
C      18.65      17.79      26.71
C      16.22      19.28      22.43
C      13.51      17.58      26.43
C      13.79      14.74      22.15
C      16.23      13.25      26.43
O      16.21      16.28      24.43
O      17.95      15.49      21.79
O      18.84      16.57      26.32
O      16.15      19.43      23.70
O      19.03      14.82      23.69
O      16.29      18.17      21.79
O      17.63      18.49      26.33
O      14.46      18.41      26.19
O      13.61      14.62      23.43
O      13.44      16.37      26.05
O      14.80      15.38      21.66
O      17.35      13.80      26.16
O      15.07      13.66      26.06
