20

Zn       5.69       7.34       7.66
Zn       8.47       7.34       7.66
C       7.06       7.30      10.25
C       7.05       7.37       5.08
C       7.09       4.78       7.59
C       7.09       9.89       7.74
C      11.29       6.31       8.20
C       2.87       7.97       6.70
C      11.29       8.36       7.12
C       2.87       6.70       8.63
N      10.59       7.34       7.66
N       3.57       7.34       7.66
O       5.98       7.64       9.67
O       8.15       7.72       5.62
O       5.98       7.04       5.66
O       8.15       6.95       9.71
O       5.99       5.34       7.94
O       8.16       9.28       8.08
O       5.99       9.34       7.39
O       8.16       5.39       7.24
