14

Zn       3.63       5.42       7.66
Zn       2.07       3.25       7.56
O       2.80       6.43       9.09
O       1.42       4.65       8.98
O       2.15       5.70       6.25
O       2.85       2.08       8.92
O       0.84       3.84       6.19
C       4.71       3.80       5.85
C       3.83       2.78       9.42
C       1.76       5.78       9.49
C       1.16       5.03       5.81
O       3.60       3.23       6.13
O       5.09       4.90       6.45
O       4.24       3.87       8.93
