9

N      -0.15      -0.66      16.97
C      -1.23       2.52      19.62
C       0.67       2.52      18.28
Zn      -1.51       0.91      17.07
C       0.49      -1.02      15.84
C       0.06      -1.38      18.09
I      -1.46       2.17      14.86
I      -3.53      -0.15      18.26
N      -0.59       2.11      18.50
