13

Cu      -1.55       9.66       0.00
C       0.37       8.93       2.25
N      -0.86      11.28      -1.02
N      -2.24       8.04       1.02
N      -3.24       9.61      -1.14
C      -1.44      11.83      -2.13
C      -4.25       8.68      -1.11
N       0.14       9.70       1.14
C      -1.66       7.49       2.13
C       1.15      10.64       1.11
C       0.32      11.96      -0.82
C      -3.47      10.39      -2.25
C      -3.42       7.35       0.82
