20

Zn       3.85       5.45       7.35
Zn       6.71       5.52       7.22
C       5.43       8.01       6.91
C      -0.42       5.38       8.24
C       5.24       5.69       9.91
C      -0.34       5.81       6.03
C       1.07       5.86       6.08
C       0.97       5.38       8.29
C       5.36       2.95       7.38
C       4.92       5.11       4.68
N      -1.12       5.56       7.13
N       1.76       5.61       7.23
O       4.34       7.37       6.92
O       6.60       7.50       7.05
O       4.10       5.89       9.37
O       6.36       5.59       9.31
O       4.28       3.51       7.79
O       6.47       3.56       7.20
O       3.88       4.83       5.36
O       6.05       5.45       5.14
