14

Zn       3.32      -8.31      15.31
Zn       1.76     -10.49      15.31
C       3.60     -10.95      17.11
C       0.73      -8.74      13.63
O       3.98      -9.82      16.66
C       4.36     -10.06      13.63
C       1.49      -7.85      17.11
O       4.65      -8.86      14.02
O       0.44      -9.94      14.01
O       2.54     -11.58      16.71
O       1.77      -8.10      13.94
O       2.55      -7.22      16.71
O       3.32     -10.70      13.94
O       1.11      -8.98      16.66
