23

Zn       8.13       4.15      12.10
Zn       8.04       2.46      14.93
Zn       6.42       5.13      14.60
Zn       9.52       5.33      14.84
C       8.13       1.21      12.23
C       5.58       5.59      11.79
C      10.61       5.76      12.11
C       5.46       2.89      16.27
C      10.47       3.01      16.47
C       7.78       7.30      16.11
O       8.07       4.24      14.08
O       8.06       1.12      13.50
O       8.18       2.27      11.52
O       5.35       5.66      13.06
O       6.55       4.99      11.23
O      10.68       5.94      13.39
O       9.72       5.13      11.47
O       5.30       4.09      15.82
O       6.42       2.10      16.00
O      10.55       4.24      16.12
O       9.60       2.16      16.08
O       6.71       6.79      15.60
O       8.97       6.91      15.92
