15

N      18.97       6.91      10.28
N      17.86       6.53      10.99
N      14.75       8.43      10.45
Cu      16.26       7.40      10.65
Cu      18.80       7.95       8.77
Cu      16.10       9.42       8.23
N      14.80       9.45       9.52
N      17.38       9.41       6.90
N      18.62       8.88       7.18
C      18.25       5.71      11.98
C      20.05       6.32      10.84
C      13.78      10.30       9.77
C      13.69       8.66      11.26
C      19.39       9.01       6.08
C      17.40       9.88       5.64
