20

Zn       2.61       5.34       5.28
Zn       5.32       5.41       5.81
C       3.83       2.79       5.53
C       3.88       7.96       5.43
C       4.59       5.31       2.99
C       3.70       5.38       8.16
C      -1.72       6.42       6.29
C      -1.80       4.34       5.32
C      -0.35       6.46       6.05
C      -0.44       4.46       5.04
N       0.31       5.50       5.40
N      -2.43       5.36       5.92
O       2.69       3.33       5.33
O       2.78       7.34       5.22
O       4.92       3.42       5.77
O       5.01       7.41       5.66
O       3.37       5.27       3.35
O       2.69       5.24       7.39
O       5.61       5.34       3.75
O       4.90       5.55       7.80
