18

O       6.43       1.02       1.53
O       6.45       1.45      -1.17
Al       9.25       0.00      -0.00
Al       5.90       0.01      -0.01
O       7.57      -0.80      -0.12
C       4.24      -1.30      -2.04
C       4.23      -1.85       1.55
H       4.23       1.75      -0.08
H       7.57      -1.73       0.16
C       7.57       1.32       2.02
C       7.59       1.86      -1.57
O       5.36      -1.44       1.15
O       9.80      -1.05      -1.51
O       8.72       1.41      -1.22
O       9.78      -1.41       1.20
O       8.70       1.05       1.50
O       5.38      -0.99      -1.57
O       4.23       0.80       0.11
