10

Al       0.01       5.84       3.38
O      -1.08       7.31       3.94
O      -1.08       5.61       1.80
O      -1.08       4.61       4.36
O       1.09       7.31       2.78
O       1.09       5.62       4.94
O       1.09       4.61       2.40
C      -2.06       4.81       1.59
C      -2.05       4.82       5.17
C      -2.04       7.91       3.36
