36

Al      11.99      15.82       7.56
Al       8.70      15.80       7.53
C      10.30      17.69       6.00
Al       5.42      15.84       7.56
Al      15.29      15.86       7.51
H      10.31      16.38       9.18
H      13.60      16.32       5.84
O      10.34      15.82       8.40
O      11.53      14.27       6.55
O       9.16      17.37       6.49
O       9.33      14.64       6.16
O      11.38      17.03       6.16
C      13.73      13.97       9.04
O      13.63      15.87       6.70
O      12.65      14.64       8.91
O       8.13      16.98       8.96
C      13.57      17.69       9.09
O       8.20      14.25       8.51
O      12.42      17.37       8.63
O      16.93      15.85       8.38
O       4.95      14.30       6.50
O      15.77      17.41       6.50
O      15.91      14.69       6.10
O       4.83      17.07       6.20
O       7.06      15.86       6.70
O       6.00      14.61       8.92
H      16.92      15.31       9.19
O      14.85      14.29       8.53
O      14.65      17.04       8.91
O       5.92      17.37       8.63
C      16.98      14.01       5.97
H       7.04      16.39       5.89
C      16.91      17.73       6.02
C      10.40      13.97       6.03
C       7.08      13.94       9.05
C       7.05      17.66       9.13
