18

O       6.07       5.67      17.89
Al       4.39       4.89      18.02
Al       7.75       4.90      17.99
C       2.74       6.19      15.96
C       2.72       6.74      19.57
C       6.06       3.58      20.05
C       6.06       3.00      16.49
H       2.73       3.20      17.67
H       6.06       6.63      17.84
O       8.27       6.30      19.19
O       3.87       5.92      16.48
O       4.93       3.43      16.89
O       3.86       6.30      19.20
O       4.92       3.87      19.59
O       8.28       5.92      16.47
O       2.72       4.06      18.12
O       7.20       3.87      19.55
O       7.20       3.44      16.85
