18

O       1.31       0.04      21.16
O       3.41       1.84      19.71
O       1.13      -1.40      18.95
O      -1.16      -0.44      22.13
Mg       2.03       0.40      19.29
Mg      -0.25      -1.04      20.40
Mg       4.32       0.64      21.09
C      -0.57       1.61      18.90
C       4.00      -1.99      19.55
C       1.72       0.37      22.34
C       3.97       2.70      18.85
C       1.69      -2.58      18.63
C      -0.60      -0.13      23.31
O       0.62       1.55      18.44
O      -1.67      -2.36      19.83
O       2.90       0.80      22.52
O      -0.98       0.75      19.78
O       3.60      -0.80      19.85
