11

Ru      10.55      10.54      13.05
C      10.58       8.45      15.06
C       9.87      13.34      13.15
C       7.73      10.16      13.63
C      12.72      11.63      14.59
C      11.23       9.69       9.98
N      10.97       9.80      11.14
O      10.86       8.67      13.83
O       8.59      10.00      12.70
O      10.23      12.43      12.33
O      12.46      11.10      13.45
