11

Zn      16.54       8.15      21.55
O      16.25       8.91      23.38
C      14.69       6.69      19.79
N      18.12       6.94      22.01
O      16.83       8.91      19.72
C      18.92       6.36      21.08
C      15.24       9.72      23.37
N      14.96       6.94      21.09
C      14.16       6.36      22.02
C      17.83       9.72      19.73
C      18.39       6.69      23.31
