20

Zn       9.74       6.97       9.83
Zn      10.53       9.62       9.87
C      10.11       8.27      12.45
C      12.59       7.45       9.80
C      10.14       8.28       7.23
C       8.01       4.74       8.91
C       7.73       9.22       9.62
C       9.12       4.28      10.89
C      10.75      12.52       9.26
C      12.62      11.69      10.37
N       8.86       5.12       9.87
N      11.41      11.49       9.82
O      10.06       7.14      11.86
O      10.20       9.41      11.88
O      11.73       6.55       9.55
O      12.33       8.66      10.12
O       9.53       7.31       7.79
O      10.75       9.22       7.83
O       8.00       8.05      10.06
O       8.59      10.15       9.45
