9

N       7.25       2.30       1.75
N       6.95       5.17       3.20
I       6.17       5.18      -0.43
I       3.86       3.12       2.94
Zn       6.00       3.97       1.79
C       7.26       1.48       2.82
C       8.06       2.03       0.71
C       8.24       5.50       3.01
C       6.30       5.65       4.28
