45

Zn       4.28       6.43       4.82
Zn      -0.74       2.55       7.94
Zn       1.77       4.49       6.38
C       5.46       8.58       3.30
C      -1.92       0.41       9.46
C       7.80       9.02       2.94
C      -4.27      -0.03       9.82
C       5.99      10.62       2.12
C      -2.45      -1.63      10.64
N       6.39       9.38       2.79
N      -2.85      -0.39       9.97
O       2.73       6.98       3.67
O       0.81       2.00       9.09
O       2.04       4.96       4.34
O       1.50       4.03       8.42
O       5.07       4.66       4.84
O      -1.53       4.32       7.91
O       3.75       3.89       6.52
O      -0.21       5.10       6.24
O       4.17       7.34       6.55
O      -0.63       1.64       6.20
O       2.12       6.50       7.04
O       1.42       2.48       5.72
O       5.73       7.49       3.89
O      -2.20       1.49       8.87
H       4.42       8.91       3.16
H      -0.88       0.07       9.60
H       8.42       9.78       2.46
H      -4.89      -0.80      10.30
H       8.06       8.94       4.00
H      -4.53       0.05       8.75
H       8.01       8.05       2.47
H      -4.47       0.94      10.29
H       6.88      11.15       1.80
H      -3.35      -2.17      10.96
H       5.38      10.40       1.23
H      -1.84      -1.42      11.53
H       5.41      11.26       2.80
H      -1.88      -2.28       9.96
C       1.87       6.03       3.69
C       1.67       2.96       9.07
C       4.65       3.75       5.65
C      -1.12       5.23       7.11
C       3.10       7.27       7.26
C       0.44       1.72       5.50
