23

Zn      12.81      14.78       8.73
Zn      11.59      17.70       9.27
Zn      13.46      16.26      11.44
Zn      14.67      17.39       8.69
O      13.13      16.53       9.53
O      10.93      14.67       8.19
O      10.71      18.09      10.99
O      13.03      14.41      11.97
O      10.35      16.85       8.02
O      13.23      13.33       9.99
O      12.27      17.40      12.51
O      15.34      16.63      11.82
O      15.56      16.16       7.45
O      15.90      17.99      10.10
O      14.01      14.50       7.19
O      12.14      19.46       8.56
O      14.12      18.93       7.60
C      10.13      15.60       7.81
C      11.18      17.98      12.17
C      13.13      13.35      11.27
C      16.13      17.47      11.25
C      15.10      15.10       6.90
C      13.13      19.72       7.80
