18

Al       3.61       4.75       7.43
Al       6.89       4.78       7.44
H       5.22       6.30       8.32
H       1.89       3.20       6.64
O       3.13       6.56       7.01
O       0.78       4.40       9.27
C       2.05       7.16       7.32
C       1.91       4.58       9.83
C       5.19       2.36       7.51
C       5.32       4.86       5.03
O       6.28       2.96       7.23
O       4.25       4.50       5.63
O       4.10       2.92       7.82
O       6.42       5.16       5.60
O       0.95       6.60       7.62
O       2.97       4.96       9.22
O       5.24       5.38       8.01
O       1.96       4.15       6.85
