14

Cu       9.72      15.45      12.07
C       8.01      13.22      12.17
O       8.34      13.04      13.39
Cu       9.72      14.22      14.19
C      11.43      16.47      14.05
O      11.10      15.51      14.82
O      11.07      14.21      11.43
C      11.43      13.22      12.17
O      11.10      13.04      13.39
O       8.37      16.62      12.82
O       8.37      14.21      11.43
O       8.34      15.51      14.82
C       8.01      16.47      14.05
O      11.07      16.62      12.82
