18

Mg       3.45      15.15       9.97
Mg       1.20      15.11       8.14
Mg       5.70      16.71       9.02
C       3.86      18.04      10.86
O       0.35      18.03       9.66
O       1.84      16.38       9.63
C       1.52      17.61       9.91
C      -0.64      16.05       6.06
O       4.36      16.83      10.55
O       4.85      13.93      10.79
C       3.77      15.43       6.91
O      -0.41      14.78       9.37
O       2.11      13.76       9.30
O       2.60      15.01       6.67
O       4.09      15.80       8.11
O      -0.14      16.38       7.26
C       1.61      12.88      10.19
C       6.02      13.93      10.30
