20

Zn       5.18       8.93       8.57
Zn       5.11       6.15       8.64
C       5.32       7.68      11.24
C       4.41      11.70       9.26
C       4.22       3.46       9.59
C       6.09      11.62       7.65
C       2.54       7.64       8.69
C       5.16       7.41       5.97
C       7.76       7.44       8.54
C       5.90       3.39       7.98
N       5.06       4.10       8.76
N       5.24      10.99       8.47
O       5.25       8.81      10.65
O       5.11       6.28       6.56
O       5.26       6.54      10.68
O       5.11       8.56       6.53
O       3.14       8.76       8.67
O       7.16       6.31       8.55
O       3.10       6.49       8.72
O       7.20       8.59       8.51
