10

Al       1.97      11.64       6.89
O       0.94      12.69       5.65
O       0.94      12.20       8.42
O       0.92      10.09       6.63
O       3.02      13.21       6.81
O       3.01      10.73       5.52
O       3.02      10.92       8.31
C      -0.02      13.47       5.96
C      -0.02      11.54       8.94
C       0.03       9.94       5.74
