23

Zn      -0.85       9.23      18.83
Zn       0.75       7.74      20.97
Zn       0.79      10.96      21.01
Zn       2.45       9.47      18.85
O       0.79       9.36      19.89
O      -1.95       7.63      19.03
O       0.27       8.35      22.86
O      -0.84      11.94      20.79
O      -0.80       6.60      20.70
O      -1.88      10.84      19.09
O       1.52      10.22      22.79
O       2.30      12.15      20.71
O       1.80       9.89      16.94
O       3.54      11.07      19.15
O      -0.07       8.64      17.00
O       2.34       6.70      20.68
O       3.47       7.84      19.06
C      -1.75       6.66      19.84
C       0.92       9.29      23.44
C      -1.75      11.82      19.89
C       3.30      12.06      19.93
C       0.84       9.27      16.36
C       3.29       6.84      19.83
