18

Al       5.36      19.21      21.08
O       4.85      20.45      19.70
Al       2.05      19.27      21.08
O       4.85      20.45      22.46
O       1.54      18.03      22.46
C       3.73      20.88      19.30
C       3.73      20.88      22.87
O       1.54      18.03      19.70
O       3.70      18.43      21.08
C       7.03      17.59      22.87
O       7.00      20.04      21.08
C       7.03      17.59      19.30
O       5.89      17.95      19.73
O       2.58      20.53      22.44
O       2.58      20.53      19.73
H       3.65      17.46      21.08
H       6.96      21.01      21.08
O       5.89      17.95      22.44
