35

Zn       6.36      17.02       2.01
Zn       3.56      19.20      -1.85
Zn       6.20      16.49      -1.11
Zn       3.81      19.16       1.60
C       8.50      18.86       1.09
C       0.65      19.29      -1.00
C       4.99      21.69      -1.25
C       7.81      14.16       1.80
C       2.40      16.62       2.22
C       5.31      20.41       3.98
C       4.99      15.84      -3.73
C       4.03      20.09      -4.87
C       4.09      15.18       2.29
C       6.99      18.99       4.19
C       3.05      16.86      -3.56
C       5.28      21.66       0.95
C       7.09      13.74      -0.26
C       8.68      18.14      -1.02
C       0.81      19.68       1.20
N       7.34      18.27       0.76
N       4.52      16.31       1.68
N       6.01      18.38       3.47
N       3.73      17.10      -2.40
N       4.94      20.42       0.55
N       6.74      15.00       0.07
N       7.45      17.85      -0.54
N       2.05      19.59       0.68
N       1.95      19.33      -0.67
N       4.76      20.45      -0.80
N       7.19      15.27       1.34
N       5.66      19.31      -3.54
N       3.48      17.19       1.64
N       4.98      19.27       3.34
N       4.91      16.44      -2.53
N       4.33      19.66      -3.63
