32

O      -1.11       7.15      18.85
Dy      -7.10       7.14      18.32
O      -1.88       4.82      20.44
Dy      -3.24       6.96      19.62
C      -9.64       5.10      17.51
C      -4.63       9.22      17.53
O      -4.48       5.26      20.82
H      -1.21       4.64      19.75
C      -1.87       9.31      22.90
O      -6.99       7.12      15.82
H      -1.41       5.22      21.19
H      -4.06       4.38      20.73
C      -2.29       8.52      21.70
H      -5.45       5.19      20.63
H      -7.71       6.54      15.51
H      -7.19       8.02      15.50
C      -8.14       5.70      20.70
C      -6.14       8.61      20.71
C       0.01       7.17      19.43
O      -3.71       8.46      17.94
C      -9.89       9.09      17.37
C      -4.31       5.19      17.43
O      -8.40       5.41      17.48
O      -5.88       8.95      17.56
O      -3.16       5.34      17.93
O      -8.85       8.43      17.74
O      -5.33       5.83      17.88
O      -2.64       9.12      20.63
O      -2.29       7.23      21.77
O      -5.30       7.78      20.23
O      -7.00       5.55      20.14
O      -7.27       8.75      20.14
