28

Cd       1.80      11.91       0.79
O       0.60      10.25       2.07
O      -0.61      11.79       0.98
Cd       6.16      11.15       1.48
O       1.76      13.71      -0.55
H       5.58      13.25      -0.57
H       7.09      12.67      -0.72
C      -0.52      10.72       1.68
O       7.92      10.34       2.61
C       2.91      14.09      -0.97
O       3.73      10.92       1.58
C       8.87      10.53       1.76
C       3.77      10.00       2.50
O       4.84       9.57       2.98
C       1.64      10.57      -2.23
O       6.44      13.03      -0.09
C       1.95       8.98      -0.58
H       2.79       9.61       2.84
C       6.10      12.65       4.24
C       5.32      14.11       2.62
C       1.77      14.67       2.57
C       2.13      12.83       3.92
C       5.24      10.21      -1.48
C       6.25       8.47      -0.34
N       1.82      10.27      -0.93
N       5.79      12.90       2.96
N       1.99      13.35       2.69
N       5.83       9.75      -0.36
