20

Zn       9.69       8.89      14.58
Zn       6.91       8.90      14.55
N       4.85       8.90      14.56
N      11.74       8.89      14.57
O       9.45      10.94      14.59
O       7.18      10.93      14.61
O       7.13       8.88      16.63
O       9.39       8.90      16.63
O       7.17       6.86      14.54
O       9.44       6.85      14.56
O       9.43       8.89      12.52
O       7.16       8.90      12.51
C       8.31      11.51      14.59
C       8.28       8.89      17.23
C       8.31       6.27      14.55
C       8.30       8.90      11.94
C       4.17       9.72      15.38
C       4.17       8.08      13.73
C      12.43       9.71      15.40
C      12.42       8.08      13.74
