20

Zn       1.63       3.50      12.76
Zn      -0.96       2.82      13.79
C      -0.25       5.62      13.58
C       0.50       0.83      12.20
C      -0.45       3.63      10.82
C       1.21       2.63      15.63
C       5.88       3.17      13.06
C       4.42       3.10      13.04
C       3.98       4.73      11.31
C       6.11       1.34      14.59
N       6.61       2.44      13.86
N       3.60       3.83      12.35
O       0.94       5.18      13.70
O      -0.35       0.86      13.14
O      -1.30       4.94      13.83
O       1.51       1.59      12.06
O       0.72       4.11      10.99
O      -0.07       2.65      15.55
O      -1.15       3.10      11.73
O       2.02       2.75      14.67
