20

Zn      12.74       7.72       7.85
Zn      10.06       7.46       8.78
C      11.96       5.01       8.10
C      10.95      10.16       8.45
C      12.17       7.26      10.78
C      10.58       7.35       5.87
C       7.92       5.76       9.99
C      14.86       9.45       6.66
C       7.15       7.47       8.62
C      15.64       7.71       7.99
N       8.16       6.84       9.20
N      14.63       8.36       7.42
O      13.04       5.62       7.84
O       9.95       9.53       8.91
O      10.85       5.54       8.43
O      12.00       9.66       7.95
O      13.01       7.59       9.88
O       9.68       7.55       6.76
O      10.90       7.26      10.63
O      11.84       7.46       6.05
