20

Zn       9.22       7.61       8.57
Zn       6.46       7.66       8.58
C       7.91      10.26       8.67
C       7.82       5.03       8.45
C       3.72       8.25       7.60
C      11.94       6.47       8.91
C       3.75       7.01       9.56
C      11.93       8.72       8.36
C       7.82       7.95       6.01
C       7.81       7.74      11.15
N       4.41       7.64       8.57
N      11.26       7.59       8.63
O       8.96       9.63       9.01
O       6.78       5.63       8.92
O       6.83       9.69       8.24
O       8.88       5.62       8.09
O       8.94       8.10       6.58
O       6.70       7.99      10.58
O       6.76       7.49       6.56
O       8.85       7.28      10.58
