10

Al       4.61      17.63      10.21
O       3.54      18.19       8.72
O       3.54      16.05      10.46
O       3.54      18.63      11.44
O       5.68      16.97       8.77
O       5.68      19.21      10.36
O       5.68      16.70      11.49
C       2.58      15.88      11.28
C       2.58      19.44      11.17
C       2.58      17.56       8.16
