14

Zn       6.32      -0.23      34.25
Zn       3.59      -0.26      34.30
C       5.43       2.28      34.38
C       4.46      -0.30      31.75
O       5.55      -0.55      32.38
C       5.47      -2.75      34.45
O       6.60      -2.14      34.42
O       4.32      -2.23      34.34
O       3.26      -0.32      36.25
O       5.49      -0.10      36.18
O       4.30       1.73      34.21
O       6.57       1.69      34.38
C       4.40      -0.26      36.84
O       3.33      -0.19      32.34
