20

Zn       4.93      10.50       9.63
Zn       5.06       7.49       9.59
N       5.04      12.55       9.52
N       5.16       5.43       9.59
O       5.58      10.34       7.71
O       4.05      10.29      11.41
O       6.00       8.13       7.82
O       4.53       8.08      11.53
O       6.78      10.02      10.46
O       3.06      10.05       8.72
O       6.96       7.77      10.40
O       3.18       7.79       8.94
C       5.86       9.21       7.16
C       6.07      13.22      10.08
C       4.05      13.23       8.91
C       4.35       9.24      12.07
C       7.48       8.95      10.42
C       2.53       8.87       8.89
C       4.29       4.71      10.31
C       6.08       4.77       8.86
