20

Zn      13.76       2.11       2.48
Zn      13.84       2.19       5.38
C      13.74      -0.43       4.32
C      16.38       2.07       3.54
C      13.97       4.77       3.93
C      11.17       2.11       3.93
N      13.39       2.36       0.46
N      13.61       2.57       7.40
O      13.66       0.17       3.19
O      15.78       2.18       4.66
O      13.94       0.14       5.45
O      15.79       1.90       2.41
O      14.06       4.15       2.82
O      11.79       1.99       5.04
O      13.77       4.22       5.06
O      11.73       2.29       2.80
C      12.53       3.36       0.16
C      12.66       3.48       7.69
C      13.97       1.70      -0.56
C      14.24       1.95       8.42
