26

Cd      11.80       8.29      12.07
Cd      11.80       5.46       9.22
N      14.14       5.60       9.27
N      14.14       8.15      12.02
N       9.46       5.60       9.27
N       9.46       8.15      12.02
O      11.80       9.98      10.38
O      11.80       7.91       9.55
O      11.80       3.78      10.91
O      11.80       5.85      11.74
O      11.80      10.12      13.68
O      11.80       8.02      14.43
O      11.80       3.63       7.61
O      11.80       5.73       6.86
C      14.82       7.20      12.69
C      14.83       9.11      11.39
C      14.82       6.55       8.61
C      14.83       4.64       9.90
C       8.78       6.55       8.61
C       8.76       4.64       9.90
C       8.78       7.20      12.69
C       8.76       9.11      11.39
C      11.80       9.18       9.39
C      11.80       4.57      11.91
C      11.80       9.30      14.65
C      11.80       4.46       6.65
