18

Al      -3.27       4.62       7.52
Al       0.07       4.56       7.53
H      -1.62       3.14       6.55
H      -4.97       5.98       8.58
O      -3.77       2.76       7.57
O      -6.11       4.93       5.71
O      -0.51       6.37       7.73
O      -2.68       4.51       9.34
O      -2.76       6.47       7.48
O      -0.44       4.16       9.34
O      -6.03       2.76       7.36
O      -3.85       4.80       5.69
C      -4.90       2.18       7.52
C      -4.96       4.96       5.10
C      -1.61       6.99       7.64
C      -1.58       4.27       9.94
O      -1.60       4.06       6.87
O      -4.95       5.11       8.16
