23

Zn      -1.60       9.24      24.64
Zn       1.58       9.24      24.64
Zn      -0.02      10.84      26.92
Zn      -0.01       7.63      26.92
O      -0.01       9.24      25.79
O      -0.01       8.10      28.84
O      -0.02      10.38      28.84
O      -1.15       9.24      22.73
O       1.13       9.24      22.73
O      -1.60      11.95      26.58
O       1.58       6.53      26.58
O       1.57      11.95      26.58
O      -1.60       6.53      26.58
O       2.71       7.67      24.96
O      -2.73      10.81      24.96
O      -2.73       7.67      24.96
O       2.70      10.81      24.97
C      -0.01       9.24      29.41
C      -0.01       9.24      22.15
C      -2.58      11.78      25.77
C       2.55       6.70      25.77
C       2.55      11.78      25.77
C      -2.57       6.70      25.77
