10

Al       0.00      14.51      16.76
O       1.05      13.56      18.06
O       1.05      13.87      15.29
O       1.05      16.11      16.94
O      -1.05      12.92      16.93
O      -1.05      15.45      18.06
O      -1.05      15.17      15.30
C       1.98      14.52      14.70
C       1.98      16.29      17.79
C       1.98      12.73      17.79
