24

Al      13.35       8.37      16.34
Al      11.79       5.61      16.75
Al      10.18       8.14      16.71
O      12.71       9.53      17.83
O      10.30       5.10      15.65
O       9.20       7.08      15.51
O      10.19       9.38      15.32
O      11.76       7.36      16.61
H      15.56       9.12      16.60
O      14.19       7.28      17.75
C      13.93       6.22      18.39
O      13.16       5.28      17.95
O      10.68       5.34      18.26
O       9.40       7.21      18.18
O      10.45       9.48      17.97
O      12.43       9.37      14.96
O      13.80       7.06      14.95
O      12.83       5.05      15.31
C       9.90       6.20      18.80
O      14.79       9.35      16.06
C      11.63       9.74      18.43
C      13.46       5.90      14.57
C       9.51       5.93      15.03
C      11.23       9.58      14.59
