18

Al       6.01       6.36       8.66
Al       9.34       6.29       8.65
O       7.69       7.15       8.61
O       5.52       7.50       7.17
O       5.41       7.68       9.89
O       6.51       5.30      10.16
O       8.85       5.14       7.18
H       4.40       4.66       8.13
H       7.73       8.01       8.18
O       9.84       7.36      10.15
C       4.36       7.88       6.78
C       4.30       7.85      10.50
C       7.63       4.82      10.52
C       7.69       4.71       6.83
O       9.91       7.62       7.35
O       4.36       5.50       8.62
O       8.73       4.98       9.90
O       6.58       4.99       7.40
