24

Al       1.34       0.95       0.46
Al       4.55       0.96       0.46
Al       3.14       3.60       0.46
C       3.18      -0.42      -1.53
C       5.21       3.03      -1.41
C       1.12       3.31      -1.41
C       3.19      -0.52       2.32
C       5.20       3.02       2.34
C       1.23       3.24       2.43
O       4.38       3.89      -0.96
O       1.87       4.16      -0.77
O       0.81       2.18       1.87
O       2.07      -0.20       1.83
O       4.33      -0.38       1.72
O       5.46       1.86       1.85
O       4.58       3.93       1.66
O       2.07       4.07       1.89
O       3.03       1.85       0.43
O       0.77       2.18      -0.99
O       2.04      -0.17      -1.03
O       4.32      -0.25      -0.95
O       5.57       1.95      -0.82
O      -0.21       0.12       0.52
H      -0.61      -0.07      -0.34
