25

Cd       2.77       2.72       8.16
O       0.06       4.30       6.24
O       5.48       1.14      10.08
Cd       2.05       5.22       5.87
O       0.60       2.48       7.50
Cd       3.49       0.23      10.44
O       4.94       2.96       8.82
O       3.23       3.24       5.93
O       2.31       2.21      10.39
O       3.07       0.42       8.02
O       2.47       5.02       8.30
O       2.14      -1.21       9.22
O       3.40       6.65       7.10
C      -0.17       3.14       6.72
C       5.71       2.30       9.60
C       4.16       3.52       5.05
C       1.38       1.93      11.27
C       2.25      -0.56       8.13
C       3.30       6.00       8.19
C       2.15       6.81       3.22
C       3.39      -1.37      13.10
C       0.01       6.52       3.56
C       5.53      -1.08      12.76
N       1.28       6.31       4.08
N       4.26      -0.86      12.24
