24

Al       4.52       2.74      14.27
Al       6.29       5.42      14.24
Al       7.73       2.79      14.22
O       4.01       3.92      12.73
O       3.95       3.98      15.68
O       7.67       5.74      15.50
O       7.53       1.55      15.59
O       5.25       1.62      15.71
O       7.55       5.73      12.86
O       5.15       5.91      15.62
O       8.78       3.76      15.46
O       6.20       3.66      14.24
O       7.52       1.46      12.95
O       5.25       1.55      12.84
O       5.04       5.93      12.96
O       8.62       3.72      12.81
O       2.97       1.93      14.29
H       2.69       1.55      13.45
C       6.39       1.25      12.37
C       4.36       5.05      12.30
C       8.27       4.83      12.29
C       6.39       1.33      16.16
C       4.35       5.06      16.18
C       8.48       4.88      15.99
