23

Zn      -3.08       4.77      10.19
Zn      -6.27       4.76      10.21
Zn      -4.70       3.02       8.01
Zn      -4.67       6.25       7.85
C      -4.62       4.54       5.46
C      -4.64       4.76      12.68
C      -2.17       7.32       8.96
C      -7.28       2.21       9.15
C      -7.25       7.20       8.92
C      -2.10       2.18       9.15
O      -4.67       4.70       9.05
O      -6.23       1.91       8.46
O      -4.49       5.70       5.97
O      -5.78       4.67      12.12
O      -4.74       3.43       6.07
O      -3.50       4.85      12.10
O      -3.18       7.49       8.19
O      -7.48       3.30       9.78
O      -6.41       7.17       7.94
O      -3.08       1.94       8.35
O      -7.22       6.47       9.96
O      -1.94       3.21       9.87
O      -1.99       6.35       9.78
