20

Zn       5.38       8.44       7.63
Zn       5.46       5.59       7.55
C       5.65       7.33       5.03
C       5.52       6.85      10.16
C       8.02       7.01       7.80
C       2.88       6.82       7.41
C       6.61       2.76       7.01
C       4.75      11.31       8.78
C       4.42       2.86       7.71
C       6.03      11.15       6.87
N       5.53       3.49       7.29
N       5.32      10.55       7.84
O       5.61       8.49       5.53
O       5.43       5.72       9.60
O       5.66       6.22       5.66
O       5.35       7.99       9.61
O       7.41       8.12       7.69
O       3.40       5.68       7.56
O       7.50       5.85       7.84
O       3.49       7.91       7.23
