23

Zn      23.21      18.72      16.98
Zn      21.70      19.68      14.30
Zn      20.02      18.64      16.84
Zn      21.48      21.44      16.96
O      21.61      19.62      16.26
O      24.41      18.16      15.53
O      20.18      18.74      13.50
O      20.45      17.05      17.91
O      23.35      18.86      13.63
O      22.73      17.12      18.01
O      18.98      18.00      15.28
O      18.79      19.74      17.90
O      23.00      21.85      18.17
O      19.86      21.76      18.02
O      24.20      19.93      18.17
O      21.67      21.53      13.64
O      21.52      22.79      15.54
C      24.31      18.30      14.26
C      19.19      18.12      14.01
C      21.59      16.61      18.27
C      18.89      20.96      18.27
C      24.00      21.13      18.54
C      21.59      22.64      14.27
