64

N       7.77       0.07       8.30
N      12.72      -0.07       8.13
Zn      12.62       1.62       1.93
Zn       7.67      -1.62      14.50
N       9.03      -0.21       7.92
N       4.08       0.21       8.51
Zn      10.19       1.21       7.20
Zn       5.24      -1.21       9.22
C       9.27       0.56       4.32
C      11.18       3.96       0.36
H      13.25      -0.95       2.46
O       4.94      -2.99       8.51
O       9.89       2.99       7.91
C       6.23      -3.96      16.07
H       8.30       0.95      13.96
C       4.32      -0.56      12.11
H      14.62      -0.51       1.77
C      10.86       5.28       0.06
O      13.84      -0.19       2.34
C       9.00       3.74       7.32
C       4.05      -3.74       9.10
O       8.89       0.19      14.08
H       9.67       0.51      14.65
H      10.69       3.12      -0.14
C      11.54       6.30       0.74
H      10.08       5.52      -0.66
C      12.52       5.95       1.68
O      11.94       0.85       0.23
O       6.99      -0.85      16.20
C      12.78       4.60       1.93
H      11.31       7.34       0.55
C       7.83      -4.60      14.50
C       9.26      -1.55       8.09
C       4.31       1.55       8.34
C      13.78       4.13       2.92
H      13.05       6.74       2.21
C       8.83      -4.13      13.51
C       8.07      -2.08       8.64
C      13.02       2.08       7.79
C      14.55       4.99       3.70
H      14.42       6.07       3.62
C      15.48       4.47       4.59
H      16.11       5.13       5.18
N      13.91       2.78       3.04
C      15.59       3.08       4.73
H      16.30       2.66       5.43
N       8.96      -2.78      13.39
C      14.77       2.28       3.94
N      12.11       3.63       1.27
H      14.80       1.19       4.00
N       7.16      -3.63      15.16
C       9.82      -2.28      12.49
C       9.87       0.61       3.04
N      11.13       1.13       3.21
C       4.92      -0.61      13.39
N       6.18      -1.13      13.21
N      11.30       1.37       4.51
N       6.35      -1.37      11.91
N      10.21       1.04       5.19
N       5.26      -1.04      11.23
C      12.66       0.78      -0.85
N       7.18      -1.04       8.73
N      12.13       1.04       7.69
C       7.71      -0.78      17.27
