23

Zn      17.65       5.02      31.97
Zn      14.44       4.87      31.80
Zn      16.19       2.16      31.84
Zn      15.91       3.94      34.47
C      16.02       7.01      30.53
C      13.66       2.44      30.26
C      18.78       2.68      30.53
C      16.05       0.99      34.55
C      18.45       5.51      34.80
O      16.06       3.99      32.52
O      17.18       6.59      30.90
O      13.46       3.64      30.63
O      17.82       1.86      30.80
O      14.89       6.47      30.78
O      18.85       3.90      30.90
O      14.67       1.72      30.64
O      16.14       0.81      33.28
O      17.44       4.89      35.32
O      15.97       2.11      35.16
O      18.64       5.64      33.55
O      13.23       5.42      33.23
O      14.29       4.80      35.16
C      13.32       5.33      34.50
