23

Zn      18.39       7.30       8.84
Zn      16.90       4.42       8.68
Zn      18.63       5.50       6.18
Zn      20.09       4.56       8.85
O      18.48       5.46       8.15
O      16.73       7.58       9.87
O      15.87       3.77       7.12
O      18.60       7.34       5.51
O      15.69       5.54       9.76
O      18.42       8.63       7.39
O      17.11       4.55       5.38
O      20.26       4.65       5.51
O      21.08       5.77      10.02
C      15.78       6.76      10.13
O      19.91       7.72      10.04
C      18.51       8.45       6.12
O      17.36       2.85       9.76
C      20.88       6.97      10.39
C      16.12       3.93       5.88
C      18.52       2.43      10.13
O      21.31       3.99       7.43
O      19.65       2.96       9.88
C      21.22       4.10       6.17
