20

Zn       5.54       7.70       9.74
Zn       8.38       7.70       9.73
C       6.96       5.10       9.75
C       6.96      10.31       9.71
C       6.96       7.70       7.10
C       6.96       7.71      12.36
C       2.83       8.53       8.90
C      11.09       6.88      10.56
C       2.83       6.88      10.56
C      11.09       8.53       8.90
N       3.49       7.70       9.73
N      10.43       7.70       9.73
O       5.82       5.68       9.77
O       8.10       9.72       9.70
O       5.83       9.72       9.72
O       8.09       5.68       9.74
O       5.82       7.70       7.67
O       8.09       7.71      11.80
O       5.82       7.69      11.80
O       8.10       7.71       7.66
