48

Cu      13.57      15.23      18.96
C      16.19      13.37      11.77
N      12.19      16.56      20.09
Cu      13.89      18.32      15.21
Cu      13.57      14.56      12.13
C      11.11      17.10      19.50
C      15.21      13.21      14.07
Cu      13.89      11.47      15.88
N      12.19      13.23      11.00
C      12.34      16.72      21.42
N      15.29      10.36      17.22
N      15.29      19.43      13.88
N      14.09      19.55      16.80
N      13.37      13.67      20.23
C      12.26      13.41      17.24
C      16.35      10.99      17.74
N      14.09      10.24      14.29
N      13.37      16.13      10.86
C      15.14       9.04      17.46
O      15.16      13.84      11.17
O      14.02      13.43      13.68
O      12.01      14.45      17.92
O      13.45      13.01      17.03
O      15.45      12.53      15.12
C      11.26      11.11      17.04
C      16.19      16.42      19.32
O      12.30      10.51      16.59
O      15.16      15.95      19.93
O      14.02      16.36      17.41
C      15.21      16.58      17.02
O      12.01      15.34      13.17
O      13.45      16.78      14.06
O      15.45      17.26      15.97
C      11.10      12.70      11.59
C      12.34      13.07       9.67
O      12.30      19.28      14.50
C      12.26      16.38      13.85
C      16.35      18.80      13.35
C      15.15      20.75      13.63
C      11.26      18.68      14.05
C      12.15      13.18      20.52
C      14.47      13.06      20.71
C      15.31      19.79      17.30
C      12.99      19.98      17.44
C      12.15      16.61      10.58
C      14.47      16.74      10.38
C      15.31      10.00      13.79
C      12.99       9.81      13.65
