9

Zn       5.63       6.11      17.07
C       3.31       7.61      18.16
N       4.65       7.45      18.28
Br       7.38       7.22      15.90
Br       3.88       4.99      15.90
C       7.94       4.60      18.16
N       6.61       4.76      18.28
C       5.32       8.23      19.14
C       5.93       3.98      19.14
