20

Zn       7.49      11.23       7.34
Zn       7.22      10.88      10.17
C       4.78      10.79       8.51
N       7.63      11.32       5.29
N       7.26      10.90      12.23
O       5.25      10.62       9.69
O       5.46      10.93       7.45
O       9.47      11.46       7.81
O       9.25      11.22      10.06
O       6.87      12.92       9.98
O       7.13      13.22       7.74
O       7.58       8.90       9.76
O       7.76       9.18       7.52
C       8.14      12.38       4.64
C       7.15      10.28       4.58
C       7.01       9.80      12.96
C       7.63      12.03      12.85
C       7.79       8.48       8.58
C       6.82      13.62       8.91
C       9.93      11.30       8.99
