21

C       3.39       6.83      15.14
C      -1.64       8.41      15.67
Ni       0.73       6.65      16.17
C       3.10       4.88      16.67
C       0.86       8.30      18.81
C       0.60       4.99      13.53
N       0.19       5.36      17.70
N       1.27       7.93      14.64
N      -1.31       6.99      15.97
N       2.77       6.30      16.37
O       1.03       8.28      17.53
O       0.44       5.02      14.81
H       0.38       5.96      18.55
H       1.08       7.33      13.80
H      -1.53       6.39      15.17
H       2.99       6.90      17.17
C       1.00       4.13      17.70
C       0.47       9.16      14.64
C      -1.26       5.14      17.57
C       2.72       8.15      14.77
C      -1.93       6.46      17.20
