23

Zn      17.71       5.00      31.98
Zn      14.50       4.90      31.82
Zn      16.19       2.18      31.82
Zn      16.01       3.95      34.49
C      16.09       7.02      30.53
C      13.70       2.50      30.27
C      18.81       2.68      30.53
C      16.10       1.00      34.53
C      18.50       5.52      34.79
O      16.10       4.01      32.53
O      17.24       6.57      30.90
O      13.48       3.70      30.63
O      17.84       1.88      30.79
O      14.95       6.51      30.79
O      18.92       3.90      30.90
O      14.68       1.77      30.62
O      16.17       0.84      33.26
O      17.52       4.90      35.32
O      16.03       2.10      35.17
O      18.72       5.65      33.53
O      13.28       5.48      33.25
O      14.36       4.79      35.15
C      13.40       5.34      34.52
