23

Zn       3.91       7.86       8.77
O       5.68       7.94       7.92
Zn       3.25       6.36      11.49
O       3.58       6.12       9.58
Zn       5.14       4.98       9.32
O       3.81       9.32      10.07
Zn       2.02       5.28       8.77
O       5.91       4.41      11.04
O       6.56       5.89       8.33
O       3.35       8.25      12.02
O       2.59       8.25       7.36
O       4.69       3.34       8.33
O       4.57       5.39      12.58
O       1.48       5.70      12.02
O       1.25       6.42       7.36
O       0.60       4.94      10.07
O       2.47       3.57       7.92
C       6.65       7.09       7.82
C       5.58       4.65      12.27
C       3.58       9.34      11.35
C       0.51       5.15      11.35
C       1.58       7.59       6.90
C       3.58       2.90       7.82
