14

Zn       2.31      -8.10      14.45
Zn       3.93      -9.22      16.31
O       5.26      -7.81      16.44
C       4.95      -6.87      15.61
O       3.89      -6.84      14.89
C       1.40      -7.38      16.82
C       2.06     -10.97      15.72
O       1.04      -7.17      15.61
C       4.24      -9.38      13.15
O       1.71      -9.99      14.98
O       2.42      -8.06      17.17
O       3.21      -8.70      12.80
O       3.06     -10.94      16.54
O       4.59      -9.68      14.33
