20

Zn       8.55       0.97       7.73
Zn       8.57      -1.00       5.65
C       8.32       1.98       4.99
C      11.14      -0.02       6.50
C       8.94       3.56       9.08
C       9.18       1.78      10.54
C       8.81      -2.00       2.84
C       7.44      -3.28       4.21
N       8.93       2.23       9.30
N       8.25      -2.22       4.05
O       8.17       2.35       6.21
O       6.50       0.67       7.82
O       8.56      -2.44       7.17
O      10.53       0.90       7.13
C       5.95      -0.04       6.91
O      10.60      -0.93       5.79
C       8.80      -2.03       8.35
O       6.56      -0.73       6.04
O       8.84      -0.81       8.73
O       8.59       0.80       4.60
