19

Co       2.90       7.91       0.00
N       4.97       9.22       1.62
N       0.82       6.60      -1.62
N       4.07       6.05      -0.58
N       1.73       9.78       0.58
C       1.43       5.91       1.50
C       4.36       9.91      -1.50
C       2.56       7.43       2.85
C       3.23       8.40      -2.85
C       5.50       7.24       0.87
C       0.30       8.59      -0.87
C       5.26       6.05       0.07
C       0.54       9.77      -0.07
C       3.79       4.98      -1.34
C       2.00      10.84       1.34
N       2.26       6.98       1.61
N       3.53       8.85      -1.61
N       4.55       8.21       0.84
N       1.24       7.61      -0.84
