18

Al       4.04       5.75       8.30
Al       0.71       5.74       8.31
H       5.70       4.24       7.43
H       2.37       7.33       8.99
O       3.44       3.93       8.18
O       1.33       5.60       6.49
O       6.89       7.59       8.00
C       2.33       3.34       8.40
C       2.42       5.87       5.88
C       5.77       8.17       8.21
C       5.65       5.65      10.72
O       4.52       5.50      10.13
O       4.66       7.57       8.40
O       2.38       6.36       8.90
O       6.76       5.84      10.13
O       1.21       3.91       8.63
O       3.55       6.06       6.48
O       5.71       5.16       7.71
