23

Zn      11.92       9.68      18.42
Zn      11.92      11.94      16.10
Zn       9.71      11.94      18.42
Zn       9.71       9.68      16.10
O      10.81      10.81      17.26
O      13.79       9.80      17.79
O      11.32      13.82      16.24
O       9.87      11.46      20.30
O      13.79      11.82      16.73
O      11.75      10.17      20.30
C      14.35      10.81      17.26
C      10.81      10.81      20.88
O      10.31      13.82      18.28
C      10.81       7.24      17.26
O      11.32       7.81      18.28
O      11.75      11.46      14.22
O       7.83      11.82      17.79
O      10.31       7.81      16.24
O       7.83       9.80      16.73
O       9.87      10.17      14.22
C      10.81      10.81      13.64
C       7.27      10.81      17.26
C      10.81      14.38      17.26
