10

Al       3.97       5.89      10.20
O       2.94       5.01       8.84
O       2.93       5.15      11.62
O       2.92       7.47      10.13
O       5.03       4.34       9.89
O       5.01       6.95       8.98
O       5.02       6.40      11.71
C       1.97       5.72      12.24
C       1.99       7.73       9.30
C       1.98       4.21       9.03
