20

Zn       5.52       7.72       9.81
Zn       5.52      10.41       9.81
C       5.51       9.01      12.43
C       5.53       9.01       7.19
C       5.84       4.98       8.70
C       6.57      13.15      10.31
C       5.20       4.98      10.92
C       4.48      13.15       9.31
C       8.12       9.13       9.83
C       2.92       9.13       9.79
N       5.52       5.65       9.81
N       5.52      12.48       9.81
O       5.77       7.90      11.85
O       5.81      10.10       7.79
O       5.28       7.90       7.77
O       5.24      10.10      11.84
O       7.53       8.07       9.45
O       3.52      10.19       9.41
O       3.52       8.07      10.17
O       7.52      10.19      10.21
