20

Zn       6.10       5.42       5.50
Zn       3.36       5.36       5.49
C       4.70       5.33       8.11
C       4.74       8.03       5.53
C      10.30       6.28       6.09
C      10.28       4.43       4.79
C       8.89       4.45       4.80
C       8.91       6.30       6.09
C       4.72       5.36       2.88
C       4.76       2.75       5.49
N      11.02       5.36       5.46
N       8.17       5.39       5.46
O       5.84       5.37       7.54
O       3.57       5.36       7.52
O       5.87       7.45       5.57
O       3.61       7.45       5.49
O       5.85       5.45       3.45
O       3.59       5.30       3.46
O       5.87       3.38       5.44
O       3.61       3.28       5.53
