23

Zn      18.35       7.32       8.83
Zn      16.88       4.43       8.66
Zn      18.60       5.49       6.19
Zn      20.07       4.61       8.86
C      15.75       6.76      10.11
C      16.07       3.92       5.85
C      18.47       8.45       6.10
C      21.18       4.11       6.16
C      20.86       7.00      10.38
C      18.49       2.45      10.12
O      18.46       5.47       8.14
O      16.70       7.59       9.86
O      15.87       3.79       7.10
O      18.55       7.33       5.50
O      15.67       5.55       9.73
O      18.39       8.64       7.37
O      17.09       4.55       5.33
O      20.22       4.63       5.49
O      21.09       5.79      10.04
O      21.27       4.03       7.43
O      19.87       7.71      10.01
O      17.33       2.84       9.74
O      19.60       3.00       9.88
