12

O      10.00      10.02       0.39
C       9.61      12.35       2.93
O       7.96      12.05      -0.03
C       5.21       9.90       0.73
O       8.08       8.43       1.93
Zn       8.11      10.36       1.20
C      10.25       9.48      -0.73
C       7.83       7.37       1.26
N       8.71      11.34       2.89
O       6.07      10.44       1.50
C       7.63      12.01      -1.26
C       8.18      11.27       4.13
