12

O       2.27      19.05      12.25
C       1.88      16.72       9.70
O       0.23      17.02      12.67
C      -2.52      19.17      11.90
Zn       0.38      18.71      11.44
O       0.35      20.64      10.71
C       2.52      19.59      13.37
C       0.10      21.70      11.38
N       0.98      17.73       9.75
O      -1.66      18.63      11.13
C      -0.10      17.06      13.90
C       0.45      17.80       8.50
