20

Zn       8.38       7.66       8.07
Zn       5.62       7.60       8.06
C       7.00      10.24       8.04
C       2.88       8.22       7.09
C      11.12       8.28       9.03
C       2.90       7.00       9.07
C      11.09       6.97       7.11
C       7.01       5.02       8.05
C       6.98       7.62       5.43
C       7.00       7.62      10.70
N       3.56       7.61       8.08
N      10.43       7.64       8.06
O       8.15       9.69       8.02
O       5.86       5.57       8.01
O       5.89       9.62       8.08
O       8.13       5.63       8.10
O       8.12       7.59       6.01
O       5.86       7.54      10.12
O       5.84       7.66       6.00
O       8.13       7.72      10.13
