20

Zn       6.14       5.51       1.04
Zn       3.39       5.51       1.13
C       4.84       2.89       1.04
C       4.61       5.55      -1.55
C       4.91       8.13       1.13
C       4.69       5.51       3.71
C      10.35       4.82       0.25
C       8.91       6.26       1.95
C       8.95       4.80       0.23
C      10.31       6.27       1.98
N      11.06       5.54       1.11
N       8.20       5.51       1.07
O       5.97       3.47       1.00
O       3.70       3.47       1.06
O       3.50       5.56      -0.93
O       5.77       5.53      -1.01
O       3.78       7.54       1.17
O       6.05       7.55       1.08
O       5.81       5.51       3.09
O       3.54       5.49       3.17
