15

N       6.47      -9.68      20.51
N       5.84     -10.60      19.71
N       7.58     -13.66      18.62
N       8.88     -13.90      19.01
N      10.61     -11.45      21.16
N       9.95     -10.30      21.57
Cu       6.73     -12.12      19.19
Cu       8.21     -10.01      21.03
Cu       9.73     -12.66      20.09
C       4.59     -10.16      19.46
C       5.62      -8.67      20.75
C       9.26     -15.08      18.48
C       7.17     -14.68      17.85
C      10.80      -9.59      22.33
C      11.85     -11.43      21.68
