25

N       2.35      11.76       9.49
Cd       0.00      11.64       9.46
O       0.00      10.01      11.22
O       0.00      11.87       7.14
H      -2.42      13.53       8.42
H       2.42      13.53       8.42
H      -4.90      13.61       8.32
H       4.90      13.61       8.32
H      -4.92       9.88      10.53
H       4.92       9.88      10.53
H      -2.44       9.98      10.52
H       2.44       9.98      10.52
C       0.00      10.87      12.16
C       0.00      10.60       6.92
C      -3.03      12.75       8.88
C       3.03      12.75       8.88
C      -4.42      12.78       8.83
C       4.42      12.78       8.83
C       6.65      11.75       9.43
C       5.16      11.75       9.43
C      -4.43      10.72      10.05
C       4.43      10.72      10.05
C      -3.04      10.76      10.05
C       3.04      10.76      10.05
N      -2.35      11.76       9.49
