18

Al       5.86       6.86       8.25
Al       2.52       6.90       8.26
H       4.20       8.31       7.25
H       7.55       5.37       9.10
O       6.38       8.72       8.26
O       8.67       6.64       6.43
O       3.07       5.06       8.35
O       5.30       7.03      10.07
O       5.32       5.01       8.23
O       3.04       7.23      10.08
C       7.51       9.30       8.21
C       7.55       6.52       5.84
C       4.18       4.46       8.29
C       4.18       7.27      10.66
O       8.64       8.72       8.18
O       6.41       6.65       6.42
O       4.20       7.41       7.62
O       7.53       6.32       8.89
