23

Zn      18.28       7.27       8.83
Zn      16.75       4.46       8.60
Zn      18.58       5.48       6.19
Zn      19.99       4.56       8.91
O      18.40       5.43       8.14
O      16.63       7.55       9.87
O      15.74       3.95       7.00
O      18.40       7.30       5.49
O      15.54       5.54       9.72
O      18.30       8.59       7.38
C      15.66       6.75      10.12
C      18.34       8.41       6.11
O      20.96       5.74      10.14
C      20.75       6.97      10.44
C      18.29       2.41      10.06
O      19.78       7.69      10.02
O      17.16       2.86       9.66
C      16.09       3.95       5.77
O      17.20       4.40       5.32
O      20.32       4.77       5.60
C      21.22       4.15       6.26
O      21.25       3.96       7.52
O      19.44       2.92       9.85
