20

Zn       1.02       2.08       8.52
Zn      -1.79       1.74       8.03
C      -0.52       1.32      10.81
C      -0.24      -0.67       7.99
C      -0.62       4.51       8.65
C      -0.15       2.43       5.71
C       3.72       2.71       7.48
C      -4.49       2.93       7.79
C       3.77       1.44       9.43
C      -4.54       0.67       8.33
N       3.07       2.11       8.49
N      -3.83       1.77       8.02
O       0.66       1.68      10.49
O      -1.43      -0.25       7.75
O       0.58       4.10       8.79
O      -1.35       2.16       6.04
O      -1.56       1.37      10.06
O       0.79       0.05       8.19
O      -1.64       3.78       8.39
O       0.87       2.43       6.48
