20

Zn       2.68       7.97       7.64
Zn       2.89       5.15       7.64
C       3.13       6.65      10.24
C       2.52       6.54       5.04
C       2.43       2.23       7.93
C       2.68      10.79       6.75
C       4.63       2.78       7.40
C       1.25      10.39       8.53
C       0.25       6.14       8.01
C       5.33       6.96       7.29
N       3.37       3.16       7.66
N       2.15       9.94       7.64
O       3.12       7.77       9.65
O       2.55       5.41       5.60
O       3.14       5.50       9.68
O       2.39       7.67       5.63
O       0.80       7.28       8.11
O       4.79       5.81       7.27
O       0.86       5.02       7.91
O       4.72       8.07       7.29
