10

Al       0.07      20.15      17.45
C       2.09      21.90      16.42
C       2.09      20.16      19.48
C       2.09      18.38      16.45
O       1.15      18.58      17.29
O       1.15      21.08      16.17
O       1.15      20.79      18.89
O      -0.98      19.14      16.22
O      -0.98      19.59      18.94
O      -0.98      21.72      17.19
