18

Al       3.92      -0.03      16.01
Al       0.59      -0.04      16.04
O       1.19       1.35      17.27
O       3.30       1.32      14.80
O       4.41      -1.08      14.49
O       3.43       1.10      17.51
O       4.51      -1.41      17.25
O       1.07       1.02      14.53
O       2.25      -0.87      16.06
O       6.76      -1.16      17.54
O       6.62      -1.37      14.83
O       5.58       0.80      16.09
C       2.19       1.53      14.21
C       2.31       1.62      17.82
C       5.61      -1.63      17.86
C       5.53      -1.59      14.21
H       2.27      -1.69      16.58
H       5.57       1.52      16.73
