10

Al       0.04      14.53       0.00
O      -1.01      16.11      -0.18
O      -1.01      13.58      -1.28
O      -1.01      13.89       1.46
O       1.11      15.49      -1.27
O       1.11      15.14       1.47
O       1.11      12.95      -0.20
C      -1.97      12.78      -1.06
C      -1.97      14.48       2.05
C      -1.97      16.32      -0.99
