15

C      15.71       8.53       8.62
C      22.86       8.49      11.51
C      21.49      10.19      11.91
C      19.07       4.31       7.58
C      21.12       4.30       8.41
N      16.98       8.27       8.99
N      17.43       9.32       9.75
N      20.84       9.30      11.14
N      21.69       8.24      10.89
N      20.51       5.43       8.81
N      19.23       5.43       8.29
Cu      19.14       9.28      10.43
Cu      18.12       6.86       8.65
Cu      21.08       6.84       9.85
C      16.43      10.22       9.86
