24

Al      11.64       6.61      13.69
Al       8.45       6.44      13.82
Al      10.01       3.86      13.82
O      12.32       5.28      12.38
O      10.85       7.57      12.13
O       7.58       5.41      15.15
O       8.62       7.79      12.56
O       7.50       5.50      12.49
O       8.63       3.52      12.54
O      11.16       3.32      12.47
O      12.22       5.57      15.23
O      10.85       7.87      14.96
O       8.60       7.70      15.19
O       8.78       3.49      15.21
O      11.32       3.49      15.10
O      10.01       5.62      13.77
O      13.11       7.57      13.66
H      13.63       7.53      12.85
C       9.69       7.99      11.86
C       7.84       4.37      11.99
C      12.00       4.14      11.93
C       9.77       8.08      15.58
C       8.01       4.36      15.75
C      11.99       4.42      15.71
