9

I      -2.69       3.91      22.77
I      -3.70       1.41      26.32
Zn      -2.28       3.22      25.18
C      -1.51       5.58      26.97
N      -2.52       4.82      26.51
C      -3.76       5.04      26.98
N      -0.24       2.84      25.42
C       0.58       3.14      24.39
C       0.28       2.28      26.53
