23

Zn      23.17      18.74      16.99
Zn      21.63      19.61      14.28
Zn      19.96      18.67      16.83
Zn      21.51      21.46      16.88
O      21.58      19.61      16.25
O      24.50      18.40      15.56
C      24.22      18.25      14.31
C      21.55      16.69      18.28
C      23.95      21.14      18.45
O      22.70      16.99      17.80
O      19.96      18.94      13.53
O      23.09      18.40      13.76
O      19.15      17.77      15.30
O      18.65      19.91      17.62
O      24.01      19.86      18.37
O      22.00      21.45      13.69
O      23.20      21.90      17.77
O      20.09      21.57      18.24
O      21.18      22.71      15.41
C      19.16      18.11      14.07
C      18.95      21.00      18.22
O      20.50      17.40      18.24
C      21.56      22.53      14.20
