18

Mg       2.22      -0.76      19.19
Mg       4.48      -0.26      17.42
Mg      -0.04       1.02      18.74
C       0.30      -0.20      21.52
C       0.28      -1.39      16.86
C       2.54       2.08      18.04
C       4.79      -0.68      20.45
O      -0.89      -1.26      16.39
O       1.36       2.42      18.39
O       3.62      -1.15      20.57
O       0.68      -0.67      17.86
O       2.93       0.85      18.17
O       5.19      -0.18      19.33
O       3.14      -1.77      17.67
O      -1.37       1.56      17.31
O       0.88       0.21      20.38
C       2.56      -2.55      16.75
C      -1.95       2.76      17.10
