25

O       3.28      27.19      14.74
Zn       3.03      26.19      16.81
O       0.75      26.46      16.46
Zn       0.32      27.02      18.32
Zn       4.73      25.99      14.10
O       6.28      25.74      15.23
O       0.93      25.90      19.78
O       5.07      26.04      17.13
O       2.76      25.21      18.61
C      -1.88      28.93      18.54
C       4.71      25.48      11.21
C      -2.47      26.81      19.29
C       3.70      28.40      14.40
C       6.46      26.87      11.86
C      -0.20      25.59      16.16
C       2.34      29.02      17.92
C       2.90      23.86      14.72
C       6.15      25.84      16.51
C       2.01      25.20      19.63
N      -1.56      27.65      18.75
N       5.37      26.15      12.17
O       1.14      28.83      18.34
O       3.69      24.31      13.82
O       3.13      28.13      17.49
O       2.71      24.38      15.86
