14

Ni       2.85       4.14       0.94
O       0.66       4.14       0.93
C       1.92       3.32      -1.67
O       2.75       3.79       2.96
O       3.26       2.13       0.88
C       0.73       5.37       1.22
C       2.85       2.56       3.22
C       5.80       4.07       0.62
C       3.14       1.61       2.03
N       4.75       4.76       1.10
C       3.66       4.85      -1.85
C       4.97       5.92       1.73
N       2.80       4.17      -1.08
O       1.85       6.00       1.26
