23

Zn      19.17      11.29       8.55
Zn      20.81      13.97       8.52
Zn      22.45      11.21       8.56
Zn      20.72      12.22      11.14
C      23.39      13.58       7.11
C      23.23      10.74      11.38
O      19.20      14.38       7.48
O      18.15      12.38       7.26
O      19.20      11.16      11.80
O      17.88      10.88       9.97
O      21.88       9.76       7.33
O      19.62       9.60       7.65
O      20.45      14.06      11.78
O      20.96      15.31       9.94
O      23.66      12.43       7.58
O      22.30      14.24       7.29
O      23.34      10.46      10.14
O      22.39      11.57      11.90
O      20.81      12.13       9.18
C      18.28      13.64       7.04
C      18.14      10.78      11.23
C      20.74       9.23       7.14
C      20.67      15.16      11.18
