10

Al       2.28       3.95       7.84
C       4.39       3.93       5.81
C       4.31       5.64       8.99
C       4.42       2.27       9.01
O       3.35       2.91       9.15
O       3.38       3.39       6.35
O       3.46       5.38       8.08
O       1.14       2.52       8.15
O       1.24       5.07       9.11
O       1.20       4.47       6.36
