14

O      -7.98       1.14      11.84
C     -11.11       0.00      11.40
Cu      -9.36      -1.23      13.24
Cu      -9.36       1.23      13.24
C     -11.11       0.00      15.08
O      -7.98       1.14      14.64
C      -7.61       0.00      15.08
C      -7.61       0.00      11.40
O      -7.98      -1.14      11.84
O     -10.74       1.14      11.84
O     -10.74      -1.14      11.84
O     -10.74      -1.14      14.64
O     -10.74       1.14      14.64
O      -7.98      -1.14      14.64
