20

O       3.83       5.98       2.08
O       6.00       5.32       2.20
O       3.84       3.61       0.31
Zn       3.57       5.69       0.04
Zn       6.40       5.62       0.17
O       3.93       5.40      -1.99
O       6.05       3.63      -0.15
O       6.14       5.89      -1.91
C       5.04       8.25       0.12
C       4.91       5.70       2.70
C       4.94       3.02       0.10
C       5.05       5.67      -2.56
C       0.78       6.28       0.93
C      -0.65       4.72      -0.70
C      -0.59       6.19       1.03
C       0.80       4.81      -0.79
N       1.51       5.61       0.02
N       8.46       5.44       0.21
O       6.13       7.60       0.34
O       3.92       7.69      -0.15
