14

Zn       7.93      13.81      39.13
Zn       7.93      16.54      39.13
O       7.95      13.45      41.06
O       7.83      15.72      41.07
O       6.04      16.86      39.07
O       6.00      14.58      39.07
O       8.04      15.72      37.19
O       7.92      13.45      37.21
O       9.87      14.59      39.19
O       9.83      16.86      39.19
C       7.92      14.60      41.64
C       5.43      15.72      39.07
C       7.95      14.59      36.62
C      10.44      15.72      39.19
