20

Zn       5.53       8.38       7.51
Zn       5.52       5.57       7.52
C       6.20       7.03      10.03
C       5.88      11.10       6.41
C       5.19      11.10       8.63
C       2.99       6.91       8.04
C       8.06       6.89       6.94
C       4.91       7.04       4.98
C       4.47       2.84       8.03
C       6.54       2.83       7.00
N       5.51       3.52       7.52
N       5.53      10.43       7.52
O       5.95       8.17       9.51
O       5.13       8.18       5.50
O       6.27       5.92       9.40
O       4.81       5.94       5.62
O       3.54       8.06       7.91
O       7.52       8.04       7.09
O       3.60       5.80       8.21
O       7.45       5.78       6.81
