10

Al       3.87      13.94       0.00
O       2.79      15.53      -0.07
O       2.79      13.08      -1.34
O       2.79      13.21       1.41
O       4.92      14.95      -1.24
O       4.92      14.50       1.50
O       4.92      12.36      -0.26
C       1.87      12.19      -1.12
C       1.87      13.84       2.07
C       1.87      15.78      -0.95
