18

O       4.29       0.97      17.04
O       6.51       1.45      18.29
Al       2.62       0.16      16.98
Al       5.95       0.14      16.97
O       6.46       1.29      15.54
O       0.95      -0.66      17.01
C       4.25      -1.37      15.11
C       4.30      -1.45      18.82
C       0.95       1.74      18.82
C       0.92       1.74      15.18
H       4.32       1.81      17.54
H       0.96      -1.50      17.50
O       5.45      -1.06      18.41
O       3.12      -0.94      15.51
O       2.04       1.47      15.72
O       3.18      -1.16      18.29
O       2.10       1.33      18.45
O       5.38      -1.13      15.66
