32

Zn      18.92       4.80      12.26
Zn      22.21       3.92      13.14
Zn      15.35       4.55      12.01
Zn      25.77       3.66      12.89
C      17.14       3.06      13.75
C      23.99       5.41      11.40
C      22.88       1.78      15.13
C      18.25       6.78      10.11
C      25.11       1.68      15.04
C      16.02       6.69      10.02
N      14.36       5.43      13.47
N      13.05       5.13      13.77
N      19.91       3.34      11.38
N      21.22       3.04      11.68
N      23.31       2.67      14.22
N      17.82       5.87      11.01
N      24.67       2.60      14.14
N      16.45       5.80      10.93
O      19.87       6.21      13.28
O      21.26       4.94      14.55
O      14.40       3.52      10.60
O      13.01       2.25      11.87
O      18.00       4.00      13.84
O      23.13       5.50      12.34
O      16.27       2.96      12.81
O      24.85       4.46      11.30
C      20.56       6.00      14.33
C      13.71       2.47      10.82
C      14.77       6.42      14.28
C      12.64       5.95      14.76
C      19.50       2.52      10.39
C      21.63       2.04      10.87
