10

Al       3.97      21.47       4.13
C       1.98      19.61       5.09
C       1.98      23.23       5.26
C       1.98      21.57       2.04
O       2.90      22.20       2.72
O       2.90      19.88       4.20
O       2.90      22.32       5.48
O       5.04      20.87       2.64
O       5.04      23.05       4.36
O       5.04      20.48       5.39
