40

Dy       6.45       6.45      12.28
Dy       3.89       3.89       5.26
Dy       6.45       3.89      15.79
Dy       3.89       6.45       8.77
C       7.31       5.93       9.38
C       3.03       4.41      16.40
C       5.93       3.03      12.89
C       4.41       7.31       5.87
C       7.31       4.41      18.69
C       3.03       5.93      11.67
C       5.93       7.31      15.18
C       4.41       3.03       8.16
C       1.34       5.17       7.02
C       9.00       5.17      14.04
C       5.17       9.00      10.53
C       5.17       1.34      17.55
O       7.90       6.02      10.51
O       2.44       4.32      17.53
O       6.02       2.44      14.02
O       4.32       7.90       7.00
O       7.90       4.32      17.57
O       2.44       6.02      10.55
O       6.02       7.90      14.06
O       4.32       2.44       7.04
O       1.92       6.05       7.73
O       8.42       4.29      14.75
O       6.05       8.42      11.24
O       4.29       1.92      18.26
O       1.92       4.29       6.31
O       8.42       6.05      13.33
O       6.05       1.92      16.83
O       4.29       8.42       9.82
O       6.05       6.12       9.27
O       4.29       4.22      16.29
O       6.12       4.29      12.78
O       4.22       6.05       5.76
O       6.05       4.22      18.81
O       4.29       6.12      11.79
O       6.12       6.05      15.30
O       4.22       4.29       8.28
