66

Zn      -0.64       5.74       5.32
C       0.05       4.59       2.94
Zn      -1.30       7.44      10.81
C      -0.25       5.01      11.64
N       0.03       6.10       7.19
Zn      -0.53      10.15       1.08
N      -0.94       6.54       8.00
Zn       1.30      12.72      12.55
N      -0.36       6.92       9.12
Zn       1.41      17.12       8.31
N       0.97       6.75       9.08
N       0.74      16.76       6.44
N      -2.54       5.14       5.42
N       3.31      17.72       8.20
N       1.72      16.32       5.63
C       0.73      18.27      10.69
N      -0.72       9.28      11.30
N      -0.19      16.11       4.55
N      -1.68      10.23      11.40
Zn       2.08      15.43       2.82
N      -1.11      11.37      11.70
N       1.89      11.50       1.93
N       0.23      11.17      11.80
N       0.55      11.69       1.83
N      -3.27       7.26      10.90
N       1.49      13.58       2.33
N       4.05      15.61       2.73
N       2.45      12.63       2.23
N      -0.61       7.56       4.40
N       1.39      15.30       9.23
N      -1.82       8.19       4.40
N       2.59      14.67       9.23
N      -1.87       9.00       3.38
N       2.64      13.86      10.25
N      -0.70       8.91       2.69
N       1.48      13.95      10.94
N       0.19      13.40      14.09
N       0.58       9.46      -0.46
O       0.40       4.52       4.19
O       0.37      18.34       9.44
O       3.23      12.74      13.06
O      -2.46      10.12       0.57
O       1.40      16.72       1.48
O      -0.63       6.14      12.15
N       1.13      15.94       4.51
C       1.21       6.24       7.86
C      -0.43      16.63       5.77
C      -3.50       5.57       6.31
C       4.28      17.30       7.32
C      -3.16       4.42       4.49
C       3.93      18.44       9.14
C       1.03      17.85       1.99
C       0.46       9.87      11.54
C       0.31      12.99       2.09
C      -4.32       8.13      10.69
C       5.09      14.73       2.94
C      -3.79       6.20      11.54
C       4.56      16.67       2.09
C      -1.19      13.40      14.18
C       1.96       9.47      -0.55
C       0.65      14.12      15.12
C       0.13       8.74      -1.49
C       0.07       8.02       3.33
C       0.70      14.85      10.30
C       3.47      11.69      13.76
C      -2.70      11.17      -0.13
