21

Cd       0.41      10.64       6.57
C      -2.31       8.69       6.85
C       3.13      12.59       6.30
C      -1.05       8.81       8.78
C       1.87      12.47       4.37
N       0.02      12.15       8.40
N       0.80       9.13       4.74
N      -1.29       9.24       7.53
N       2.11      12.03       5.61
N      -1.96      12.22       4.91
N       2.78       9.06       8.24
O      -0.77      12.34       5.40
O       1.59       8.94       7.74
C      -1.08      12.92       8.39
O      -2.56      13.26       4.56
C       1.90       8.36       4.76
O       3.38       8.01       8.59
O      -2.48      11.08       4.80
O       3.30      10.20       8.34
C       0.76      12.11       9.53
C       0.06       9.16       3.62
