62

Hf      14.33      15.07      15.54
Hf      14.45      15.15      19.04
Hf      16.81      17.50      15.34
Hf      16.90      17.66      18.89
Hf      13.86      18.12      17.19
Hf      17.38      14.57      17.19
H      14.93      12.97      17.21
H      14.27      17.78      19.98
H      18.94      17.19      17.20
H      14.35      17.61      14.26
H      13.94      15.72      21.64
H      15.79      16.52      21.21
H      18.35      19.85      18.96
H      19.12      18.72      14.55
H      17.11      17.03      12.77
H      13.32      15.09      12.90
H      12.05      13.70      15.56
H      12.77      13.54      17.46
H      18.03      19.82      14.89
H      14.60      14.15      13.03
H      12.00      13.97      18.84
H      17.35      16.88      21.43
O      12.37      15.87      14.79
O      12.01      17.83      15.90
O      15.34      13.28      19.76
O      17.21      12.84      18.56
O      12.43      15.93      19.64
O      12.06      17.88      18.53
O      15.38      13.29      14.54
O      17.16      12.78      15.85
O      12.92      13.55      15.96
O      14.24      15.05      13.21
O      12.85      13.62      18.51
O      14.70      15.48      21.09
O      13.82      16.06      17.23
O      15.16      13.92      17.21
O      18.70      16.55      14.55
O      19.11      14.69      15.79
O      16.04      19.60      19.54
O      14.06      19.93      18.46
O      18.62      16.46      19.85
O      19.16      14.75      18.46
O      16.10      19.64      14.95
O      14.01      19.87      15.82
O      18.54      19.07      15.26
O      16.57      17.59      13.34
O      18.47      18.90      18.78
O      16.52      17.27      21.10
C      11.66      16.89      15.12
C      16.30      12.53      19.40
C      11.71      16.93      19.30
C      16.30      12.50      14.96
O      16.34      15.55      15.71
O      14.65      17.38      19.18
O      14.60      17.26      15.13
O      16.37      15.62      18.61
O      18.04      16.85      17.13
O      15.88      18.14      17.14
C      19.43      15.59      14.94
C      15.03      20.29      15.17
C      15.02      20.30      19.23
C      19.42      15.58      19.40
