62

Zr       0.19      19.56      17.40
Zr       0.14      21.97      20.08
Zr       0.15      16.92      19.82
Zr       0.15      19.31      22.42
Zr       2.65      19.46      19.95
Zr      -2.34      19.45      19.92
H      -1.68      21.50      17.86
H       2.03      21.45      22.08
H      -1.81      17.45      21.94
H       2.13      17.48      17.90
H       1.06      23.91      21.71
H      -0.74      20.65      24.61
H       0.86      17.44      24.16
H       0.15      16.36      22.59
H      -0.56      15.17      17.98
H       0.12      16.81      16.86
H       0.72      21.23      15.46
H      -0.55      24.24      18.71
H      -0.60      15.10      21.88
H      -0.73      17.65      15.76
H       1.01      24.01      18.52
H       0.83      20.50      24.89
C       3.43      19.62      16.83
C      -3.11      22.59      20.00
C       3.46      22.57      19.82
C      -3.15      19.25      16.84
C      -3.06      16.26      19.82
C       3.38      19.30      23.14
C      -3.14      19.55      23.06
C       3.40      16.33      20.00
O       2.24      19.67      16.38
O       3.79      19.57      18.06
O      -1.92      23.04      19.96
O      -3.45      21.36      20.04
O       2.27      23.01      19.68
O       3.79      21.35      20.05
O      -1.97      19.11      16.40
O      -3.49      19.47      18.06
O      -0.04      20.99      16.01
O       0.15      17.61      16.19
O       0.12      23.61      18.38
O       0.26      23.43      21.44
O       1.24      20.55      18.94
O      -1.21      20.93      18.48
O      -1.86      15.80      19.83
O      -3.41      17.48      19.83
O       2.18      19.25      23.59
O       3.72      19.36      21.92
O      -1.94      19.61      23.51
O      -3.48      19.39      21.84
O       2.21      15.89      20.00
O       3.76      17.56      19.95
O       0.17      15.69      21.78
O       0.16      15.82      18.04
O       0.10      17.52      23.56
O       0.17      20.80      24.24
O      -1.25      17.98      21.35
O       1.21      18.37      20.96
O      -0.89      18.43      18.90
O       1.50      20.88      21.51
O       1.56      18.05      18.45
O      -0.93      20.49      21.05
