23

Zn       1.64       9.27       1.16
Zn      -0.08       7.72      -1.02
O       1.25       9.32       3.08
Zn      -0.03      10.91      -0.98
Zn      -1.61       9.34       1.33
O      -1.04       9.31       3.22
O      -2.75      10.94       1.07
O      -2.74       7.76       0.99
O      -1.58       6.55      -0.55
C       2.55       6.75      -0.06
C      -0.15       9.34      -3.48
C       2.56      11.85      -0.01
C      -2.57      11.90       0.24
C       0.14       9.32       3.72
C      -2.57       6.75       0.23
O      -0.05       9.30       0.14
O       2.74       7.69       0.79
O      -0.18       8.18      -2.93
O       1.54      12.05      -0.75
O       1.55       6.65      -0.85
O       2.75      10.83       0.73
O      -0.10      10.47      -2.89
O      -1.58      12.02      -0.55
