37

Zn       5.06      12.45       5.54
H      10.02      10.12       3.14
Zn       6.13       9.15       6.09
H      10.06       7.29       1.77
Zn       5.28       5.65       5.85
H       8.49       7.54       0.94
H       8.59       6.47       2.37
C       5.16      10.69       3.63
C       3.23      12.52       7.45
C       7.95       8.36       3.89
C       5.74      15.25       6.39
C       4.71       2.85       6.92
C       7.38      11.53       7.21
C       6.61       4.92       3.50
C       9.21       9.84       2.46
C       4.25      15.17       4.62
C       8.98       7.39       1.91
N       4.35       3.80       6.04
N       5.06      14.53       5.49
N       8.69       8.51       2.79
O       5.23      11.96       3.54
O       6.98      10.34       7.44
O       3.15      12.38       6.17
O       4.93      10.15       4.78
O       6.89      12.32       6.33
O       4.43       8.71       7.10
H       7.62       7.32       4.10
O       6.76       7.19       6.30
O       6.63       5.39       7.57
O       5.46       5.41       3.90
O       7.67       9.32       4.65
O       3.67       6.75       6.21
C       3.44       3.51       5.10
C       7.22       6.47       7.28
C       3.54       7.80       6.92
H       8.40      10.58       2.55
H       9.58       9.82       1.43
