9

Hg       0.86       0.85      17.51
C      -1.31      -0.02      15.12
C      -1.19      -1.68      16.72
N      -0.71       1.86      19.13
Cl       1.56      -0.89      19.05
Cl       1.22       2.60      15.94
C      -1.55       2.86      18.83
C      -0.73       1.34      20.37
N      -0.78      -0.50      16.26
