10

Al       0.02      21.50       4.14
O      -1.02      22.23       2.71
O      -1.02      19.90       4.22
O      -1.02      22.37       5.48
O       1.08      20.92       2.64
O       1.08      23.09       4.38
O       1.08      20.50       5.39
C      -1.94      21.62       2.04
C      -1.94      19.63       5.09
C      -1.94      23.26       5.29
