54

Zr      -7.74      10.03      14.21
Zr     -11.23      12.07      17.10
Zr      -7.70      12.07      17.09
Zr     -11.27      10.04      14.21
Zr      -9.49       9.02      17.09
Zr      -9.49      13.09      14.22
H      -6.71       9.43      16.78
H     -12.27       9.45      16.80
H      -9.47      14.27      16.79
H      -9.50      11.05      12.24
O      -7.03       7.96      14.70
O     -11.95      10.92      18.89
O     -12.03      14.10      16.54
O      -6.94      11.23      12.49
O      -5.58      11.74      16.52
O     -10.62       8.75      12.49
O     -13.38      10.46      14.71
O      -8.35      13.27      18.88
O      -8.14       8.96      18.87
O      -8.06      14.74      14.69
O     -10.92      13.19      12.50
O     -10.84       7.32      16.55
O      -6.92      14.09      16.55
O     -12.05      11.22      12.49
O     -11.98       7.97      14.69
O      -7.00      10.92      18.87
O      -5.59      10.42      14.67
O     -10.62      13.27      18.88
O     -13.38      11.77      16.58
O      -8.35       8.76      12.48
O      -8.08      13.20      12.49
O      -8.15       7.31      16.56
O     -10.82       8.95      18.87
O     -10.89      14.75      14.69
O      -9.50      11.05      13.21
O      -9.47      13.35      16.47
O     -11.48       9.90      16.47
O      -7.50       9.90      16.46
O      -9.47      11.05      17.45
O      -9.50       9.36      15.05
O     -10.95      11.90      15.06
O      -8.02      11.89      15.05
C      -7.29       7.10      15.64
C     -11.68       9.74      19.38
C     -11.76      14.96      15.61
C      -7.21      12.40      11.99
C      -4.99      11.08      15.60
C      -9.48       8.40      11.99
C     -13.97      11.12      15.64
C      -9.50      13.62      19.38
C      -7.26       9.78      19.38
C      -7.18      14.94      15.63
C     -11.79      12.37      11.99
C     -11.72       7.12      15.61
