18

Al       1.67      18.99       6.44
Al       5.02      18.99       6.40
H       3.36      17.36       7.02
H       0.00      20.63       5.83
C       3.33      20.37       4.43
C      -0.02      17.61       8.41
C       3.35      20.81       8.02
O       4.48      20.41       7.59
C      -0.01      17.17       4.82
O       1.12      17.57       5.26
O       2.20      20.06       4.93
O      -1.16      17.92       7.91
O       2.21      20.38       7.66
O      -1.15      17.60       5.18
O       1.12      17.93       7.96
O       4.48      20.05       4.89
O       3.35      18.19       6.53
O      -0.01      19.79       6.32
