10

Al       0.15       6.90       3.98
O       1.32       6.08       2.69
O       1.32       8.43       3.92
O       1.32       6.19       5.34
O      -0.97       7.14       2.44
O      -0.97       5.45       4.55
O      -0.97       8.12       4.96
C       2.29       8.78       4.68
C       2.29       5.36       5.27
C       2.29       6.56       2.01
