24

Al      10.73       6.35      14.04
Al       8.99       3.67      14.05
Al       7.53       6.28      13.94
O       9.93       7.55      15.42
O      11.22       5.19      15.59
O       7.55       3.25      12.87
O      10.28       3.14      15.27
O       7.77       3.42      15.50
O       6.56       5.35      15.31
O       7.66       7.62      15.23
O      10.06       7.41      12.57
O      11.36       5.07      12.72
O      10.06       3.23      12.59
O       6.61       5.29      12.64
O       7.80       7.52      12.58
O       9.06       5.42      14.03
O      12.27       7.19      14.06
H      12.56       7.51      14.93
C      10.94       4.01      15.96
C       6.95       4.30      15.94
C       8.78       7.85      15.84
C      10.89       4.09      12.09
C       6.92       4.14      12.16
C       8.96       7.68      12.02
