21

Ni      18.06      18.80      22.01
H      18.58      20.43      23.79
N      19.54      19.61      20.72
N      17.83      20.54      23.07
C      19.01      20.92      20.24
N      16.58      17.98      23.30
C      20.81      20.04      21.37
N      18.29      17.05      20.95
C      16.52      20.42      23.73
C      19.70      18.58      19.68
C      18.03      21.79      22.31
O      19.57      18.13      23.35
O      16.55      19.46      20.67
C      20.16      18.67      24.37
H      17.54      17.17      20.23
C      17.11      16.67      23.78
C      15.31      17.56      22.65
C      18.09      15.80      21.71
C      19.60      17.18      20.29
C      16.42      19.02      24.34
C      15.96      18.93      19.65
