10

Al       3.93      20.80       4.00
O       5.00      21.03       5.58
O       4.99      22.06       3.02
O       4.99      19.33       3.41
O       2.87      22.06       4.97
O       2.87      19.33       4.61
O       2.87      21.02       2.42
C       5.95      21.84       2.19
C       5.95      18.72       4.01
C       5.96      21.85       5.81
