20

Zn       9.65       8.90      14.60
Zn       6.88       8.90      14.51
C       8.26      11.52      14.56
C       8.27       8.90      17.17
C       8.26       6.27      14.52
C       8.28       8.90      11.93
C       4.16       9.72      15.37
C       4.16       8.08      13.70
C      12.38       9.72      15.38
C      12.37       8.08      13.71
N       4.82       8.90      14.53
N      11.72       8.90      14.55
O       9.39      10.94      14.60
O       7.12      10.96      14.53
O       7.18       8.90      16.52
O       9.44       8.91      16.66
O       7.12       6.84      14.48
O       9.39       6.86      14.57
O       9.41       8.89      12.53
O       7.14       8.90      12.49
