18

Al      -0.07       0.09       8.38
Al      -3.40       0.11       8.42
C       1.59      -1.46      10.25
C       1.61      -1.45       6.51
H      -1.75      -1.59       7.92
H       1.59       1.81       8.02
C      -1.74       1.68       6.55
C      -1.72       1.56      10.32
O       0.47      -1.17       9.72
O       2.72      -1.11       7.03
O      -2.86       1.37       7.06
O      -0.60       1.24       9.81
O      -0.60       1.37       7.03
O      -2.86       1.28       9.82
O       2.73      -1.12       9.78
O       0.46      -1.12       6.95
O      -1.73      -0.72       8.36
O       1.59       0.92       8.41
