37

Zn       1.47       3.01       8.56
Zn       3.84       7.41       9.26
Zn       1.11       6.67       7.02
Zn       4.11       4.38      10.53
N       1.47       2.87       6.59
N       5.74       6.94       9.64
N       3.00       6.49       6.65
N       4.57       2.72       9.62
N       4.06       6.32       7.43
N       3.62       2.20       8.78
N       5.80       5.57       9.70
N       1.85       3.86       5.77
N       1.46       2.61      10.51
N       2.32       8.64       8.94
N      -0.20       5.55       7.88
N       4.04       5.85      11.86
N       3.50       7.01      11.37
N       0.27       4.73       8.88
N       2.32       3.37      11.25
N       1.23       8.32       8.18
N       2.32       6.58       4.43
O       1.16       6.87       4.90
C       1.65       1.67       5.96
C       6.92       7.46      10.01
C       3.38       6.44       5.36
C       5.19       1.70      10.28
C       5.15       6.12       6.62
C       3.68       0.86       8.91
C       7.04       5.25      10.12
C       1.08       1.53      11.22
C       1.97       9.67       9.75
C      -1.36       6.11       8.30
C       4.95       6.16      12.80
C       4.07       8.03      12.05
C      -0.63       4.77       9.89
C       2.50       2.73      12.42
C       0.23       9.15       8.52
