16

Zn       4.88       6.67       6.66
C       6.04       3.81       6.67
Si       0.98       6.67       6.66
C       6.04       9.51       6.66
C       3.72       9.53       6.66
N       4.88       6.67       4.50
N       4.87       6.67       8.83
N       4.88       4.50       6.67
N       4.87       8.83       6.66
F       2.74       6.67       6.67
F       7.01       6.66       6.66
C       3.71       6.67       3.82
C       6.04       6.67       3.81
C       6.04       6.67       9.51
C       3.72       6.67       9.52
C       3.71       3.82       6.67
