23

Zn       7.28      18.67       1.00
Zn       8.91      20.19      -1.26
Zn       8.80      17.06      -1.25
Zn      10.49      18.60       1.04
O       8.89      18.63      -0.09
O       6.11      20.21       0.61
O       8.69      19.73      -3.15
O       7.19      15.99      -0.97
O       7.44      21.41      -0.78
O       6.20      17.04       0.79
O       8.99      17.50      -3.15
O      10.33      15.90      -0.84
O      10.03      18.55       2.95
O      11.65      17.06       0.61
O       7.78      18.77       2.90
O      10.57      21.21      -1.10
O      11.54      20.24       0.72
C       6.40      21.25      -0.07
C       8.90      18.62      -3.78
C       6.31      16.08      -0.04
C      11.38      16.05      -0.13
C       8.88      18.64       3.55
C      11.45      21.15      -0.17
