24

O       1.03       7.87       9.41
Zn       0.00       9.59       9.59
O      -3.75      11.10      10.87
C      -4.63      11.99      10.62
Zn      -6.86      10.07      10.07
Zn       3.43      10.47       9.19
Zn      -3.43       9.19      10.47
O      -5.83      11.80      10.26
O       3.75      10.87      11.10
C       4.63      10.62      11.99
O      -7.90      10.26      11.80
O      -3.11       8.79       8.57
O      -1.03       9.41       7.87
O      -1.46       9.15      11.04
C      -2.24       9.04       7.67
O       5.41      10.51       8.63
C      -0.73       9.39      12.11
C       6.14      10.28       7.55
C       0.73      12.11       9.39
O       1.46      11.04       9.15
C      -6.14       7.56      10.28
O      -5.41       8.63      10.51
C       2.24       7.67       9.04
O       3.11       8.57       8.79
