18

Al       1.90       6.55       5.73
O       4.71       5.53       7.22
Al       5.23       6.60       5.69
O       1.38       7.62       4.20
O       2.43       5.11       4.57
O      -0.90       8.03       6.85
O       2.43       5.49       7.27
O      -0.90       7.65       4.16
H       3.53       8.31       5.88
O       1.36       7.93       6.94
H       0.20       4.84       5.54
O       4.69       5.21       4.48
C       3.57       4.72       4.16
O       3.55       7.37       5.63
C       0.24       8.42       7.27
O       0.22       5.77       5.79
C       3.59       5.22       7.72
C       0.25       7.93       3.71
