18

Al       0.76      11.69       9.17
Al       4.09      11.74       9.12
H       2.38      13.31       8.43
H      -0.95      10.18       9.95
C       2.44       9.81       7.63
C       2.45      10.47      11.21
C      -0.89      13.62      10.64
C      -0.88      12.96       7.07
O       3.56      10.77      10.69
O       1.30      10.20       8.07
O       0.24      12.64       7.58
O       1.30      10.74      10.73
O       0.24      13.14      10.30
O       3.57      10.30       7.95
O       2.42      12.52       8.99
O      -2.03      13.24      10.22
O      -2.02      12.70       7.55
O      -0.91      10.91       9.31
