14

O       5.33       7.36       0.75
C       7.04      11.92      -0.00
O       7.68       8.58      -0.26
Zn       6.32       9.22       1.03
Zn       5.02       9.99      -1.03
O       6.40       9.02      -2.07
C       3.90      10.65       1.51
O       4.80       9.96       2.07
C       7.45       8.56      -1.51
O       3.80      10.87       0.26
C       4.30       7.29      -0.00
O       7.13      11.19       1.04
O       3.87       8.23      -0.75
O       6.35      11.65      -1.04
