18

Al       0.87       5.51      18.02
Al       4.21       5.49      18.07
C      -0.78       4.04      16.10
C      -0.82       4.01      19.92
H       2.56       3.82      17.49
H      -0.81       7.29      17.97
C       2.51       6.93      19.97
C       2.57       6.99      16.14
O       0.37       4.48      16.48
O      -1.97       4.43      19.57
O       3.59       6.81      19.29
O       1.49       6.87      16.82
O       1.38       6.49      19.57
O       3.72       6.57      16.54
O      -1.85       4.17      16.80
O       0.24       4.14      19.21
O       2.54       4.64      18.01
O      -0.80       6.33      18.04
