23

Zn      10.70      14.81       0.65
Zn       7.54      14.73       0.72
Zn       9.09      15.67      -1.92
Zn       9.08      17.57       0.70
O       6.44      14.03      -0.75
O       7.41      14.90      -2.62
O       6.38      15.92       1.78
O       7.56      17.86       1.92
O       8.94      18.85      -0.79
O       9.18      17.50      -2.61
C       9.20      12.74       2.11
C      11.61      14.18      -2.06
C      11.64      17.16       2.13
C       6.48      14.28      -2.00
C       6.58      17.10       2.23
C       8.99      18.63      -2.05
O       9.08      15.72       0.04
O       8.04      13.25       1.92
O      10.28      13.11       1.54
O      10.57      14.61      -2.66
O      11.90      14.35      -0.83
O      10.72      17.95       1.72
O      11.68      15.90       1.95
