18

Al       0.13       0.06       8.61
Al       3.46      -0.01       8.64
O       1.81       0.84       8.69
O      -1.53      -0.80       8.68
H       1.84       1.69       9.14
H      -1.48      -1.59       9.24
C      -1.53       1.55      10.53
C      -1.58       1.58       6.81
C       1.78      -1.45       6.73
C       1.78      -1.53      10.50
O      -0.38       1.24      10.07
O       3.97       1.16       7.23
O       2.89      -1.25       7.31
O       0.68      -1.27       9.92
O       0.64      -1.05       7.15
O       2.94      -1.22      10.07
O       4.02       1.28       9.99
O      -0.45       1.34       7.33
