23

Zn      16.12      16.28      22.38
Zn      17.62      15.34      25.02
Zn      15.84      18.04      25.06
Zn      14.43      15.16      24.89
C      13.22      17.46      26.30
C      18.68      14.85      22.31
C      18.37      17.74      26.57
O      16.00      16.21      24.34
C      16.06      19.23      22.37
C      13.64      14.69      22.08
O      15.97      19.37      23.64
O      18.71      16.62      26.07
O      16.12      18.13      21.72
O      17.27      18.36      26.40
O      14.15      18.31      26.01
O      13.43      14.52      23.32
O      18.80      14.73      23.58
O      14.60      15.36      21.55
O      17.22      13.82      26.18
O      17.72      15.40      21.67
O      13.18      16.23      25.95
O      14.95      13.60      25.95
C      16.10      13.23      26.38
