11

Zn       5.08      15.01      18.65
N       4.87      16.47      17.22
C       2.99      14.03      20.18
N       4.91      13.38      17.37
O       6.63      14.79      19.77
C       3.73      17.18      17.17
C       5.82      16.69      16.29
O       3.26      15.04      19.40
C       3.68      13.08      16.91
C       7.80      14.77      19.21
C       5.96      12.64      16.96
