68

Ni      43.89      25.34      17.92
Ni      46.00      26.56      21.37
Ni      48.12      25.34      17.92
Ni      46.00      29.00      17.92
Ni      46.00      26.56      16.19
Ni      48.12      27.78      19.65
Ni      43.89      27.78      19.65
Ni      46.00      24.12      19.65
H      43.89      27.78      17.05
C      42.63      24.61      15.20
H      46.00      24.12      17.05
C      47.81      27.60      23.65
H      43.89      25.34      20.51
H      48.12      25.34      20.51
H      46.00      29.01      20.51
C      46.00      24.48      23.65
C      49.38      22.53      18.14
H      48.12      27.78      17.05
C      44.20      31.50      18.14
C      40.83      25.65      18.14
C      46.00      30.46      15.20
C      51.18      25.65      18.14
C      46.00      22.67      22.37
C      44.20      27.60      23.65
C      49.38      24.61      15.20
C      47.81      31.50      18.14
C      42.63      22.53      18.14
C      46.00      28.64      13.92
N      48.43      27.96      21.58
N      44.53      25.71      15.20
N      43.57      29.67      19.17
N      47.48      22.90      19.17
N      48.44      29.67      19.17
N      44.53      22.90      19.17
N      47.48      25.71      15.20
N      43.57      27.96      21.58
N      49.91      27.11      19.17
N      42.10      27.11      19.17
N      46.00      23.76      21.58
N      46.00      28.26      15.20
N      47.48      27.41      22.36
N      43.57      25.16      15.99
N      48.43      23.46      18.39
N      44.53      30.22      18.39
N      46.00      24.86      22.36
N      46.00      29.37      15.99
N      42.10      26.01      18.39
N      49.91      26.01      18.39
C      40.83      27.47      19.42
N      44.53      27.41      22.36
N      48.43      25.16      15.99
N      47.48      30.22      18.39
N      43.57      23.46      18.39
O      44.58      27.39      17.62
O      47.43      25.74      19.95
O      46.01      24.91      17.62
O      46.00      28.21      19.95
O      44.58      25.74      19.95
O      47.43      27.38      17.62
C      49.38      28.51      22.37
C      44.20      25.52      13.92
C      42.63      30.59      19.42
C      47.81      21.63      19.42
C      49.38      30.59      19.42
C      44.20      21.63      19.42
C      47.81      25.52      13.92
C      42.63      28.51      22.37
C      51.18      27.47      19.42
