10

Al       1.54      15.23       8.87
C       3.53      15.22      10.92
C       3.51      13.46       7.82
C       3.53      17.01       7.84
O       2.59      16.19       7.58
O       2.59      15.87      10.34
O       2.59      13.66       8.69
O       0.48      16.81       8.69
O       0.48      14.26       7.56
O       0.48      14.58      10.32
