23

Zn      16.16      16.39      22.45
Zn      17.73      15.50      25.10
Zn      15.93      18.19      25.07
Zn      14.49      15.31      24.94
C      18.78      15.03      22.38
C      18.46      17.89      26.63
C      16.07      19.35      22.37
C      13.35      17.64      26.37
C      13.68      14.82      22.16
C      16.14      13.33      26.38
O      16.08      16.34      24.41
O      17.80      15.57      21.76
O      18.75      16.69      26.29
O      15.96      19.53      23.64
O      18.92      14.91      23.65
O      16.16      18.23      21.77
O      17.45      18.55      26.25
O      14.28      18.48      26.10
O      13.46      14.66      23.40
O      13.28      16.42      26.02
O      14.65      15.45      21.63
O      17.26      13.87      26.11
O      14.97      13.74      26.02
