23

Zn      18.26       7.30       8.82
Zn      16.77       4.47       8.66
Zn      18.58       5.47       6.19
Zn      19.99       4.57       8.85
C      15.66       6.75      10.14
C      16.12       3.82       5.88
C      18.37       8.40       6.08
O      18.39       5.46       8.14
O      16.60       7.57       9.84
C      20.75       6.96      10.40
O      15.68       4.04       7.05
O      15.59       5.52       9.82
O      18.32       8.60       7.35
C      18.37       2.41      10.04
O      18.39       7.27       5.49
O      17.34       4.02       5.53
O      20.24       4.70       5.48
O      19.77       7.67      10.02
O      17.24       2.82       9.60
O      20.99       5.75      10.05
O      21.21       4.00       7.43
O      19.51       2.95       9.84
C      21.16       4.12       6.16
