18

O       5.47       4.81      15.91
In       7.30       5.55      16.65
H       9.14       6.98      18.08
O       6.61       7.61      16.53
In       3.65       5.55      16.65
O       4.34       7.65      16.46
O       9.14       6.30      17.40
O       2.97       5.74      14.56
O       8.00       5.68      14.60
C       5.48       8.20      16.39
C       5.48       5.29      19.30
O       2.97       3.46      16.84
O       8.00       3.50      16.78
O       4.34       5.36      18.75
O       6.61       5.42      18.71
C       9.13       2.90      16.91
C       9.13       5.81      14.01
H       5.47       4.12      15.22
