20

Zn       5.15       5.92       8.84
Zn       5.07       8.84       8.88
C       5.39       7.60       6.24
C       2.50       7.42       8.48
C       4.82       7.35      11.46
C       7.74       7.24       8.98
C       4.10      11.58       8.81
C       6.39      11.55       9.23
C       6.12       3.19       9.09
C       3.90       3.18       8.39
N       5.24      10.88       9.01
N       5.00       3.88       8.73
O       5.37       6.44       6.80
O       5.44       8.70       6.88
O       3.07       8.55       8.49
O       3.13       6.30       8.55
O       4.75       8.50      10.87
O       4.92       6.24      10.84
O       7.18       6.10       8.98
O       7.11       8.34       9.17
