18

Al       7.22       5.61       7.35
Al       3.59       5.59       7.35
H       5.41       6.54       5.84
H       9.04       4.27       8.56
O       7.88       5.48       5.56
O      10.19       7.39       7.48
O       4.27       5.74       9.12
O       6.55       3.82       7.25
O       6.56       5.73       9.12
O       4.26       3.80       7.25
C       9.03       5.47       4.99
C       9.03       7.98       7.45
C       5.42       5.77       9.69
C       5.41       3.24       7.25
O      10.17       5.53       5.56
O       7.91       7.39       7.44
O       5.40       6.21       6.75
O       9.04       5.02       7.94
