24

Al      11.29       0.56      27.08
Al      14.51       0.42      26.99
Al      13.00      -2.17      27.08
O      10.77      -0.58      28.63
O      14.38       1.75      28.29
O      14.36      -2.51      28.36
O      10.64      -0.73      25.79
O      14.25       1.62      25.60
O      14.28      -2.51      25.71
O      11.98       1.58      25.58
O      15.47      -0.58      25.71
O      11.78      -2.69      25.78
O      12.96      -0.41      27.07
O      12.11       1.73      28.44
H       9.38       1.63      27.93
O      11.83      -2.59      28.46
O      15.47      -0.53      28.35
O       9.78       1.45      27.07
C      13.10       1.80      25.04
C      15.09      -1.68      25.16
C      10.99      -1.81      25.24
C      13.26       1.95      28.90
C      15.17      -1.65      28.87
C      11.11      -1.71      29.08
