10

Al       4.00      21.91      12.65
O       5.05      22.89      11.38
O       5.05      22.53      14.13
O       5.05      20.32      12.44
O       2.95      23.50      12.44
O       2.95      20.94      11.38
O       2.95      21.30      14.13
C       6.00      23.70      11.62
C       6.00      21.91      14.72
C       6.00      20.12      11.62
