24

Cu       3.53      -2.67       7.33
Cu       3.52      -5.01       5.97
Cu       0.67      -4.25       7.36
H       3.02      -4.89       8.47
H      -1.83      -2.87       4.99
C      -0.01      -1.88       9.20
C       1.90      -0.86       9.22
C       3.58       0.02       5.96
C       5.49      -0.52       6.84
C      -0.01      -7.02       6.25
C       1.89      -7.55       5.37
C       3.57      -5.16       2.95
C       5.48      -5.66       3.86
C      -0.92      -3.19       5.53
N       0.83      -2.59       8.43
N       2.04      -1.93       8.44
N       4.22      -0.96       6.66
N       0.83      -6.00       6.47
N       2.04      -6.34       5.91
N       4.21      -5.28       4.15
O       2.64      -4.43       7.69
O       4.78      -3.71       6.42
O      -1.16      -3.82       6.64
O       0.21      -2.93       5.08
