10

Zn       4.25       4.11       8.36
N       1.58       3.94       7.25
N       2.18       4.05       8.33
O       4.56       6.07       8.11
O       4.98       4.11      10.26
O       4.39       2.10       8.26
H       1.48       4.01       9.12
C       5.68       6.57       7.76
C       6.24       3.95      10.40
C       5.38       1.44       7.82
