9

Zn       8.59      -3.39      29.63
I       6.65      -2.32      28.33
I       8.50      -4.49      31.92
N       9.49      -4.73      28.31
C      10.66      -1.53      30.79
C      10.36      -1.27      28.50
C       8.77      -5.38      27.38
N      10.05      -1.90      29.65
C      10.82      -4.95      28.39
