14

Zn       8.11       1.00      14.42
Zn       8.16      -1.55      14.38
O       9.53       0.80      15.85
C       6.29      -0.34      16.23
C       9.99      -0.21      12.57
O       6.69       0.81      15.85
O       9.54       0.91      13.00
O       9.58      -1.37      12.96
O       9.60      -1.48      15.80
O       6.68       0.92      13.00
O       6.74      -1.35      12.95
C       9.98      -0.34      16.24
C       6.30      -0.22      12.56
O       6.73      -1.47      15.80
