23

Zn      27.34      10.76       9.53
Zn      28.93       9.84       6.92
Zn      27.42      12.64       6.94
Zn      25.80       9.83       6.83
C      27.37       7.83       5.45
C      27.35      13.72       9.66
C      30.01       9.51       9.62
C      24.87      12.25       5.49
C      29.93      12.20       5.49
C      24.84       9.23       9.59
O      25.94      12.91       5.69
O      29.86      10.93       5.59
O      24.79       9.04       8.33
O      29.12      13.03       6.01
O      25.74       9.86      10.25
O      28.95       9.88      10.23
O      24.59      11.10       5.97
O      28.46       8.17       6.05
O      27.38      13.94       8.41
O      27.35      10.78       7.58
O      26.23       8.41       5.57
O      27.30      12.58      10.23
O      30.21       9.48       8.36
