20

Zn       3.36      17.74       0.84
O       5.34      18.33      -1.49
Zn       4.30      20.00      -0.84
O       2.32      19.41       1.49
O       4.89      16.62      -0.07
O       2.78      21.12       0.07
C       1.69      16.56       3.01
C       5.98      21.18      -3.01
C       3.71      15.49       2.64
C       3.95      22.25      -2.64
C       2.36      18.02      -1.94
C       5.30      19.72       1.94
C       5.30      17.09      -1.17
C       2.37      20.64       1.17
N       2.80      16.40       2.26
N       4.87      21.34      -2.26
O       2.37      17.30      -0.89
O       5.30      20.44       0.89
O       2.78      19.21      -2.04
O       4.89      18.53       2.04
