18

Al       0.87       8.76      10.35
Al       4.19       8.88      10.29
H       2.52       9.49      11.92
H      -0.80       8.14       8.73
C       2.51      10.65       8.69
C      -0.81       6.99      11.95
C       2.54       6.94       8.79
C      -0.78      10.70      11.85
O       3.66       7.49       9.06
O       0.33      10.14      11.59
O       1.40      10.06       8.97
O      -1.92       7.58      11.67
O       1.42       7.29       9.26
O      -1.90      10.35      11.38
O       0.33       7.35      11.55
O       3.65      10.28       9.10
O       2.54       8.89      11.15
O      -0.78       8.74       9.49
