11

N       6.28       3.70       3.56
O       4.77       2.24       5.31
O       8.40       3.72       5.50
C       8.14       1.85       7.54
C       5.96       2.20       8.21
Cu       6.59       2.98       5.40
C       7.21       3.74       2.58
C       5.04       4.09       3.25
N       6.90       2.25       7.23
C       4.63       0.96       5.13
C       8.54       5.00       5.69
