23

O      14.87      -5.27      13.57
O      15.34      -3.44      17.77
Zn      13.82      -0.77      14.40
Zn      13.78      -2.50      17.06
O      16.57      -4.02      15.94
Zn      15.36      -3.58      14.45
Zn      12.17      -3.50      14.46
O      12.62      -5.01      13.28
O      12.18      -3.36      17.79
O      16.36      -2.52      13.12
O      12.24      -0.40      13.30
O      13.71       0.58      15.81
O      11.07      -2.35      13.30
O      13.79      -2.60      15.09
O      11.08      -4.15      15.95
O      15.50      -0.44      13.47
O      13.82      -0.65      17.72
C      11.24      -4.00      17.21
C      16.35      -1.25      12.97
C      13.76       0.45      17.07
C      13.73      -5.60      13.08
C      16.35      -3.97      17.19
C      11.27      -1.14      12.94
