18

Al       4.96       4.60       6.49
C       3.34       3.17       4.46
Al       1.65       4.53       6.38
C       6.65       5.97       8.41
C       3.31       2.77       8.05
C       6.62       6.37       4.82
O       2.20       3.09       7.53
O       5.51       6.05       5.33
O       4.45       3.51       4.99
O       7.76       5.63       7.87
O       4.44       3.27       7.80
O       7.76       5.87       5.06
O       5.49       5.67       7.99
O       2.18       3.47       4.88
O       3.29       5.38       6.53
O       6.60       3.76       6.34
H       3.23       6.22       7.01
H       6.55       2.92       5.85
