20

Zn       5.71       5.52       8.56
Zn       5.49       8.43       8.65
C       5.60       7.36       6.02
C       3.03       6.77       8.62
C       5.53       6.98      11.18
C       8.17       6.87       8.42
C       4.32      11.11       8.18
C       6.32      11.33       9.34
C       6.53       2.59       9.16
C       4.93       2.69       7.50
N       5.39      10.55       8.77
N       5.71       3.34       8.39
O       5.47       6.24       6.61
O       5.61       8.50       6.58
O       3.49       7.94       8.40
O       3.73       5.73       8.87
O       5.19       8.08      10.65
O       6.01       5.97      10.58
O       7.71       5.69       8.26
O       7.48       7.92       8.63
