14

Zn      -8.74       1.33      15.27
Zn     -10.09      -0.99      15.05
O     -10.87       0.31      13.65
O      -9.65       2.23      13.81
O      -7.83       0.02      13.79
C     -10.59       1.49      13.29
O      -7.51       0.93      16.70
O      -8.48      -1.10      16.38
C      -7.95      -1.19      13.44
O     -11.42      -0.75      16.45
C      -7.61      -0.34      16.92
O      -8.96      -1.93      13.75
O     -10.44       1.30      16.48
C     -11.26       0.44      16.94
