27

Fe      -1.32       1.06      13.33
Fe      -3.97      -0.00      11.49
Fe       1.32      -1.06      13.33
C       0.68       2.57      11.57
C       1.97       2.28      11.06
C      -4.62      -0.29      15.52
C      -1.97      -2.28      11.06
C      -3.32       0.29      15.52
C      -0.68      -2.58      11.57
C      -1.32       2.58      14.21
C      -3.97      -0.00       9.73
C       1.32      -2.58      14.21
N       0.31       1.52      12.35
N       2.33       1.07      11.58
N      -4.98      -0.45      14.21
N      -2.33      -1.07      11.58
N      -2.96       0.44      14.21
N      -0.31      -1.52      12.35
N       1.32       0.65      12.34
N      -3.97      -0.00      13.47
N      -1.32      -0.65      12.34
Cl      -0.00      -0.00      14.84
Cl       2.65      -1.84      11.65
Cl      -2.65       1.84      11.65
O      -1.32       3.59      14.79
O      -3.97      -0.00       8.57
O       1.32      -3.59      14.79
