18

Al       5.24       6.23      21.38
O       4.73       5.03      19.97
Al       1.89       6.31      21.38
O       4.66       4.95      22.69
O       1.31       7.64      22.65
O       1.38       7.45      19.92
C       3.57       4.66      19.57
C       3.53       4.71      23.23
O       3.58       7.08      21.37
C       6.87       7.88      23.19
O       6.93       5.46      21.39
C       6.93       7.86      19.56
H       3.61       8.04      21.43
O       2.40       5.17      22.84
O       2.46       5.01      20.09
O       5.81       7.53      20.09
O       5.75       7.40      22.82
H       6.96       4.50      21.46
