18

Zn       5.90       8.04       9.63
Zn       8.67       7.99       9.65
O       6.26      10.03       9.92
O       8.45       9.98       9.26
O       6.20       7.69      11.66
O       8.33       8.45      11.64
O       6.14       6.04       9.35
O       8.32       6.02      10.03
O       6.24       8.39       7.62
O       8.37       7.57       7.65
C       2.71       8.13       9.61
C      11.86       7.98       9.64
C       7.22       5.46       9.69
C       7.31       7.99       7.07
N       3.86       8.10       9.66
N      10.71       7.91       9.70
C       7.37      10.57       9.59
C       7.26       8.08      12.23
