23

Zn      18.55      12.57       9.81
Zn      16.96      11.51       7.27
Zn      20.17      11.56       7.21
Zn      18.47      14.31       7.10
C      15.99      11.12      10.02
C      18.54       9.43       5.92
C      21.10      11.12      10.00
C      21.08      13.86       5.67
C      18.52      15.53       9.79
C      15.97      13.85       5.69
O      18.56      12.49       7.85
O      16.96      11.71      10.60
O      17.40       9.90       6.25
O      21.26      10.98       8.74
O      15.84      10.95       8.77
O      20.12      11.70      10.58
O      19.69       9.92       6.20
O      21.30      12.64       6.02
O      18.50      15.67       8.52
O      20.08      14.57       6.02
O      18.54      14.43      10.45
O      15.90      12.65       6.09
O      16.90      14.68       5.98
