35

Zn      -0.85       5.83      13.80
Zn      -4.51       8.47      17.17
Zn      -1.30       8.73      15.32
Zn      -4.47       6.24      15.29
N       0.38       6.50      15.34
N      -4.24       8.36      14.92
N      -0.52       8.75      13.15
N      -6.33       6.73      16.03
N      -6.36       7.83      16.87
N      -0.42       7.47      12.64
N      -3.98       5.28      13.68
N      -3.06       8.88      14.45
N      -3.64       6.80      17.85
N      -1.87       9.30      17.22
N      -1.07       3.53      14.99
N      -3.08       9.72      17.72
N      -0.38       3.91      13.87
N      -3.32       5.89      16.88
N       0.41       7.83      15.68
N      -2.77       5.52      13.10
C       1.65       6.14      15.05
C      -2.78       4.98      11.87
C      -5.24       9.20      14.50
C      -0.20       9.57      12.17
C      -7.51       6.64      15.38
C      -7.56       8.42      16.72
C      -0.05       7.58      11.37
C      -4.74       4.60      12.80
C      -3.37       6.26      19.04
C      -3.33      10.02      13.79
C      -0.98       9.31      18.23
C      -2.92       9.97      19.05
C       0.04       2.82      13.19
C      -2.85       4.77      17.49
C       1.67       8.31      15.58
