18

Al      -2.69       4.67       7.48
Al       0.63       4.68       7.49
H      -1.03       6.18       8.41
H      -4.39       3.09       6.81
O      -3.19       6.49       7.13
O      -5.53       4.39       9.33
O       0.04       2.86       7.34
O      -2.06       4.53       5.66
C      -4.29       7.08       7.33
C      -4.39       4.50       9.89
C      -1.08       2.27       7.51
C      -0.98       4.86       5.08
O      -2.19       2.84       7.76
O       0.15       5.01       5.64
O      -5.40       6.50       7.59
O      -3.30       4.79       9.29
O      -1.03       5.28       8.05
O      -4.35       4.05       6.91
