18

Zn       6.71      14.95      15.05
C       4.06      14.49      13.63
Zn       9.78      14.27      14.54
O       6.43      16.05      16.78
N      11.78      14.13      14.43
C      12.50      14.51      13.35
C       3.90      14.37      15.93
C       8.14      12.41      15.95
N       4.67      14.49      14.83
C       8.03      14.52      12.28
O       7.22      13.27      16.04
O       9.03      16.01      15.14
O       9.24      12.54      15.30
C       9.57      16.23      16.33
C       6.04      17.13      16.21
O       9.24      14.34      12.64
O       7.04      14.69      13.06
C      12.44      13.70      15.53
