10

Al       4.07      20.81       3.99
O       5.13      21.04       5.58
O       5.13      22.06       3.01
O       5.13      19.33       3.41
O       3.01      22.09       4.93
O       3.01      19.34       4.64
O       3.01      20.98       2.41
C       6.09      21.81       2.20
C       6.08      18.75       4.03
C       6.10      21.85       5.77
