24

Al      12.04       7.06      13.78
Al      15.24       7.16      13.73
Al      13.75       9.76      13.63
O      12.75       6.08      15.35
O      12.90       5.75      12.58
O      16.16       8.18      12.39
O      12.49      10.05      12.29
O      11.47       8.03      12.19
O      15.15       5.87      12.39
O      15.01      10.13      12.29
O      13.70       8.00      13.72
O      16.24       8.12      15.03
H      10.38       5.63      14.59
C      11.65       9.66      15.37
O      12.58      10.42      14.89
O      11.36       8.49      14.98
O      15.00       5.85      15.03
O      15.13      10.10      14.92
O      10.52       6.18      13.81
C      13.89       5.62      15.65
C      15.97       9.30      15.45
C      11.76       9.16      11.71
C      13.98       5.52      11.97
C      15.80       9.25      11.78
