33

Zn       7.66       7.61       3.37
C      -0.25       6.80       5.01
C       4.68       8.02       3.39
Zn      12.59       9.04       4.91
C       7.08      10.40       4.34
Zn       2.73       6.99       5.37
C      12.00       6.81       6.84
C       2.15       6.44       2.47
C       7.58       7.86       0.42
C      12.50      11.47       6.59
C       2.64       4.32       6.64
C       9.45       8.91       1.31
C      14.37      10.18       7.06
C       4.52       4.56       5.29
Br       7.72       5.25       3.65
Br      12.65       9.97       2.72
Br       2.80       8.42       7.27
N       7.21       9.04       4.89
N      12.14       7.00       5.38
N       2.29       7.60       3.38
N       8.32       8.20       1.50
N      13.24      10.36       6.36
N       3.38       5.08       5.80
O      10.60       9.40       5.78
O       0.74       6.06       5.25
O       5.67       8.18       2.62
H       6.31       8.69       5.24
H      11.24       6.88       4.91
H       1.38       8.07       3.50
C       8.24       8.96       5.95
C      13.17       6.13       4.78
C       3.32       8.55       2.92
C       9.60       8.82       5.25
