16

Cu       4.04       6.82       6.82
Si       8.07       6.82       6.82
C       5.16       4.14       7.14
C       2.91       4.14       6.50
C       5.16       6.50       4.14
C       2.91       7.14       4.14
C       5.16       7.14       9.49
C       2.91       6.50       9.49
N       4.04       8.84       6.82
N       4.04       4.80       6.82
N       4.04       6.82       4.80
N       4.04       6.82       8.84
C       2.91       9.49       7.14
C       5.16       9.49       6.50
F       6.36       6.82       6.82
F       1.72       6.82       6.82
