18

C       3.13       7.41      18.79
Al       1.50       9.04      16.90
Al       4.80       9.01      17.00
C      -0.17      10.63      15.11
C       3.15       7.34      15.21
C      -0.17      10.71      18.68
O       4.25       7.74      15.70
O       0.93      10.32      18.18
O       2.00       7.74      18.29
O       5.32      10.32      15.62
O       2.02       7.84      15.51
O       5.32      10.18      18.40
O       0.99      10.29      15.49
O       4.29       7.74      18.39
O       3.15       9.84      17.06
O      -0.16       8.20      16.83
H       3.13      10.51      17.78
H      -0.18       7.55      16.11
