10

Al       4.02      18.37       3.54
O       2.95      19.01       2.07
O       2.95      16.79       3.72
O       2.95      19.32       4.82
O       5.09      17.74       2.07
O       5.09      19.96       3.72
O       5.09      17.43       4.82
C       2.01      16.60       4.56
C       2.01      20.15       4.56
C       2.01      18.37       1.49
