24

O       9.96       1.05      26.19
O      11.35      -1.23      26.05
Al      10.78      -0.13      27.53
O      10.36      -3.27      26.13
Al       9.17      -2.92      27.50
O       7.70       1.06      26.31
O       9.16      -1.15      27.54
Al       7.60      -0.35      27.48
O       7.83      -3.36      26.24
O       6.90      -1.31      25.97
O      12.29       0.76      27.52
H      12.59       1.08      28.39
C      11.10      -2.53      29.40
C       7.00      -2.42      29.29
C       8.87       1.09      29.52
C      11.05      -2.35      25.54
C       7.21      -2.47      25.55
C       8.83       1.35      25.73
O      10.02       0.91      29.04
O      11.42      -1.40      28.94
O      10.38      -3.43      28.80
O       7.87      -3.24      28.88
O       6.55      -1.41      28.65
O       7.75       0.80      28.96
