36

Fe      12.22       0.00       4.06
Fe       9.17      -1.32       5.38
Fe      15.28       1.32       5.38
Fe      18.33       0.00       6.70
H      13.75      -0.68       6.06
H       7.64       0.68       4.70
H      10.69       0.68       6.06
H      16.80      -0.68       4.70
C      14.74       0.55       2.45
C       6.64      -2.93       5.93
C       9.70      -0.55       2.45
C      17.80       2.93       5.93
C      11.69      -2.93       4.83
C      15.81       0.55       8.31
C      12.75       2.93       4.83
C       8.63      -0.55       8.31
O      13.75       0.00       5.38
O       7.64      -0.00       5.38
O      10.69      -0.00       5.38
O      16.80       0.00       5.38
O      13.56       0.09       2.54
O       7.82      -2.84       5.47
O      10.88      -0.09       2.54
O      16.62       2.84       5.47
O      10.51      -2.84       5.29
O      16.99       0.09       8.22
O      13.94       2.84       5.29
O      19.67      -0.09       8.22
O      15.37       1.19       3.36
O      18.23      -2.02       6.57
O       9.07      -1.19       3.36
O      18.43       2.03       6.57
O      12.32      -2.02       4.19
O      15.18       1.19       7.41
O      12.12       2.03       4.19
O       9.26      -1.19       7.41
