20

Zn      10.56       9.40       7.89
Zn       7.94       8.65       7.24
C       9.92       8.79       5.06
C       8.59       8.91      10.12
C       8.57      11.54       7.43
C       9.90       6.52       8.06
C       5.80       6.86       6.16
C      12.69      10.74       9.50
C       5.07       8.46       7.70
C      13.42       8.98       8.15
N       6.05       7.95       6.94
N      12.45       9.81       8.53
O      10.87       9.01       5.90
O       7.70       8.45       9.33
O       7.62      10.68       7.33
O      10.80       7.37       8.40
O       8.68       8.76       5.36
O       9.61       9.57       9.73
O       9.81      11.25       7.50
O       8.88       6.81       7.35
