14

Zn      -3.86       7.80      15.20
Zn      -2.39      10.03      15.25
O      -0.94       9.46      14.07
C      -1.26       8.31      13.54
C      -4.90       9.47      13.46
O      -2.28       7.63      13.89
O      -5.22       8.28      13.88
C      -4.51      10.48      16.77
O      -4.64       9.25      16.51
C      -2.06       7.60      17.17
O      -2.95       6.82      16.62
O      -3.81      10.06      13.74
O      -3.51      11.20      16.36
O      -1.82       8.79      16.82
