20

Zn      14.55       4.43      10.34
Zn      14.57       4.44      13.26
C      13.85       5.12       7.52
C      13.90       5.18      16.09
C      15.39       3.58       7.54
C      15.38       3.57      16.06
C      14.43       1.85      11.80
C      17.15       4.45      11.81
C      14.58       7.03      11.75
C      11.97       4.53      11.85
N      14.56       4.36       8.33
N      14.63       4.43      15.27
O      14.82       2.40      10.72
O      16.58       4.09      12.89
O      14.19       2.43      12.90
O      16.58       4.72      10.70
O      14.89       6.44      12.84
O      12.54       4.19      10.77
O      14.26       6.47      10.66
O      12.54       4.82      12.95
