18

Al       9.36       5.21       8.42
Al      12.67       5.16       8.42
H      11.05       6.70       9.27
H       7.72       3.68       7.55
O       8.86       7.05       8.27
O      13.16       4.80      10.26
O      12.09       3.34       8.28
O       9.94       5.24       6.57
C       7.72       7.60       8.41
C       7.66       4.91      10.83
O       6.63       6.97       8.58
C      10.96       2.77       8.41
O      11.02       5.76       9.02
O       7.71       4.61       7.82
O       9.86       3.37       8.55
O      12.19       5.51       6.58
C      11.06       5.45       6.01
O       8.77       5.17      10.26
