20

Zn       2.46       5.41       6.91
Zn       5.23       5.41       7.07
C       3.87       2.80       6.97
C      -1.74       4.83       6.07
C       3.85       5.45       4.35
C      -1.70       6.05       7.96
C      -0.31       6.06       7.93
C      -0.34       4.84       6.03
C       3.88       8.02       7.07
C       3.78       5.36       9.63
N      -2.45       5.42       7.02
N       0.41       5.44       6.95
O       2.73       3.38       6.86
O       5.00       3.39       7.04
O       2.68       5.44       4.84
O       4.95       5.45       5.00
O       2.75       7.44       6.96
O       5.01       7.44       7.16
O       2.68       5.38       8.99
O       4.95       5.37       9.14
