20

Zn       9.62       6.71       8.59
Zn      10.37       9.41       8.55
C      10.19       8.02      11.16
C      12.47       7.23       8.66
C      10.07       7.99       5.97
C      10.85      12.24       7.65
C      11.93      11.67       9.63
C       9.30       3.77       9.30
C       7.80       4.63       7.70
C       7.53       8.84       8.82
N      11.13      11.32       8.60
N       8.84       4.80       8.53
O       9.43       7.16      10.62
O      10.75       8.99      10.54
O      11.60       6.40       9.08
O      12.22       8.38       8.20
O      10.02       6.89       6.60
O      10.03       9.15       6.54
O       7.84       7.67       8.36
O       8.37       9.79       8.96
