20

Zn       5.66       5.58      13.26
Zn       5.65       8.36      13.29
C       5.61       6.98      15.89
C       2.99       6.96      13.27
C       5.64       7.00      10.61
C       8.27       6.91      13.24
C       6.44       2.84      12.44
C       4.82      11.10      14.08
C       6.47      11.10      12.46
C       4.81       2.84      14.08
N       5.62       3.52      13.26
N       5.65      10.41      13.27
O       5.60       5.86      15.29
O       5.62       8.12      15.32
O       3.59       8.08      13.28
O       3.59       5.81      13.24
O       5.62       8.15      11.21
O       5.65       5.88      11.21
O       7.69       5.78      13.24
O       7.68       8.05      13.24
