11

Ni       3.61       5.46       0.00
C       4.36       3.03      -1.04
C       1.08       5.20       1.04
O       4.30       6.70      -1.35
O       4.48       6.58       1.35
C       3.33       7.54      -1.42
C       5.64       6.01       1.42
N       3.40       3.97      -1.18
N       2.32       4.68       1.18
C       2.30       3.66      -1.90
C       2.47       3.55       1.90
