24

Al       4.80       4.78      13.98
Al       6.52       2.07      13.92
Al       8.01       4.67      13.91
O       4.20       3.59      15.39
O       4.21       3.57      12.54
O       7.87       1.74      12.62
O       7.79       5.93      12.55
O       5.52       5.92      12.55
O       5.35       1.62      12.55
O       8.97       3.71      12.60
O       6.47       3.83      13.94
O       7.80       1.72      15.27
O       7.88       5.98      15.21
O       5.62       5.88      15.43
O       5.27       1.59      15.21
O       8.94       3.68      15.27
O       3.28       5.65      14.05
H       3.17       6.36      13.40
C       6.77       6.18      15.84
C       4.53       2.44      15.82
C       8.59       2.57      15.80
C       6.64       6.16      12.01
C       4.56       2.48      12.01
C       8.62       2.60      12.06
