10

O       1.13       3.38       3.80
Al       0.07       4.28       2.47
O      -0.98       2.71       2.72
O      -0.98       5.28       3.72
O      -0.98       4.86       0.98
C      -1.94       6.08       3.47
C       2.03       2.52       3.53
C      -1.94       4.25       0.42
O       1.13       3.58       1.03
O       1.13       5.88       2.59
