18

Al       5.35      17.15      18.71
Al       1.83      17.05      18.75
O       2.44      18.12      20.19
O       2.47      18.37      17.52
O       5.96      16.08      17.27
H       3.62      15.64      17.85
H       7.14      18.55      19.60
O       5.99      15.82      19.94
O       4.73      18.54      17.46
C       3.55      18.90      17.12
O       4.72      18.18      20.17
O       8.25      15.66      19.99
C       3.58      18.51      20.63
C       7.07      15.30      20.34
O       8.24      16.02      17.28
O       3.61      16.28      18.59
C       7.10      15.69      16.83
O       7.13      17.92      18.87
