20

Zn      10.22      14.24      16.36
Zn      10.19      14.28      19.24
N      10.62      14.31      14.36
N       9.79      14.21      21.24
O      10.52      12.25      16.70
O       9.89      16.27      18.90
O      10.60      12.26      18.97
C       9.74      16.83      17.77
C      10.67      11.69      17.83
O       9.82      16.26      16.63
O       8.17      13.96      16.43
O      12.25      14.56      19.17
O       8.22      13.93      18.70
O      12.20      14.59      16.90
C       7.61      13.96      17.58
C      12.80      14.56      18.02
C      10.76      13.19      13.62
C       9.65      15.33      21.98
C      10.74      15.51      13.77
C       9.68      13.01      21.83
