14

O       8.62      -3.20       6.18
Zn       7.60      -4.95       6.06
Zn       6.24      -4.06       8.10
O       7.43      -2.42       7.98
O       6.42      -6.58       6.18
O       8.76      -5.70       7.53
O       5.23      -5.81       7.98
O       5.08      -3.31       6.63
O       7.59      -4.94       9.32
O       6.25      -4.07       4.84
C       5.52      -6.66       7.08
C       8.33      -2.34       7.08
C       8.55      -5.56       8.77
C       5.29      -3.44       5.38
