28

Cu       5.26      -5.23      11.08
O      11.63      -7.45       8.70
O       7.29      -7.15       8.17
Cu       7.76      -6.98      10.06
C       3.44      -2.89       7.71
Cu       3.42      -5.73       7.90
O       1.39      -3.81      10.80
O       8.31      -6.65      11.91
Cu       0.92      -3.97       8.91
O       4.72      -6.99      11.71
O       0.38      -4.31       7.06
O       3.96      -3.96       7.26
O       7.70      -4.31       9.53
O       5.32      -6.09       8.50
O       9.66      -6.64       9.45
O       3.36      -4.86      10.47
C       6.87      -3.37       9.71
C       6.15      -6.72       7.78
C      10.49      -7.58       9.26
C       2.53      -4.23      11.20
O       6.76      -5.03      12.30
O       6.26      -8.14      10.50
O       1.92      -5.93       6.67
O       2.42      -2.81       8.47
O       5.73      -3.50      10.28
C       7.78      -5.72      12.61
C       5.24      -8.06      11.26
C       0.90      -5.23       6.36
