20

Zn       6.17       5.46       5.94
Zn       3.43       4.97       5.40
C       4.29       5.12       8.22
C       9.05       5.12       5.64
C      10.47       5.24       5.77
C       5.43       5.46       3.14
C       5.31       2.67       5.55
C       4.16       7.76       5.65
N      11.33       4.53       5.10
N       8.19       5.73       6.40
O       5.50       5.12       7.83
O       6.42       5.70       3.91
O       6.34       3.41       5.60
O       3.17       7.01       5.34
O       3.25       5.13       7.48
O       8.73       6.31       7.52
O      10.79       3.47       4.42
O       4.27       5.09       3.50
O       4.10       3.06       5.58
O       5.33       7.37       5.98
