20

Zn       6.81       8.88      28.05
Zn       9.61       8.84      28.06
N      11.65       8.80      28.05
N       4.76       8.88      28.02
O       7.09      10.90      27.83
O       9.30      10.86      28.33
O       9.33       9.18      26.04
O       7.12       8.63      26.01
O       9.26       6.84      27.77
O       7.05       6.85      28.28
O       7.10       9.06      30.09
O       9.32       8.55      30.07
C       8.21      11.46      28.08
C       8.25       8.86      25.46
C       8.15       6.27      28.04
C       8.22       8.80      30.66
C      12.35       9.55      27.17
C      12.30       8.03      28.93
C       4.10       9.74      27.24
C       4.07       8.02      28.80
