18

Al       5.91       9.13      12.76
Al       2.58       9.11      12.74
H       4.26       7.56      12.02
H       7.59      10.68      13.48
C       4.24      10.94      11.14
C       7.57       7.30      14.35
C       4.24      10.51      14.74
C       7.57       7.73      10.76
O       3.11      10.18      14.25
O       6.44       8.06      11.25
O       5.37      10.55      11.57
O       8.71       7.69      13.93
O       5.38      10.19      14.27
O       8.71       8.05      11.22
O       6.43       7.73      13.98
O       3.10      10.51      11.51
O       4.25       8.31      12.63
O       7.58       9.93      12.87
