23

Zn      16.06      16.19      22.37
Zn      17.58      15.29      25.01
Zn      15.73      17.96      25.06
Zn      14.34      15.21      24.94
C      18.67      14.85      22.31
C      18.22      17.64      26.65
C      15.92      19.14      22.38
C      13.16      17.48      26.38
C      13.51      14.77      22.12
C      15.96      13.20      26.31
O      15.95      16.16      24.33
O      17.72      15.42      21.67
O      18.65      16.63      26.02
O      15.92      19.28      23.65
O      18.76      14.70      23.58
O      15.90      18.03      21.73
O      17.02      18.08      26.61
O      14.10      18.30      26.09
O      13.16      15.08      23.31
O      13.09      16.25      26.03
O      14.64      15.04      21.61
O      17.08      13.79      26.15
O      14.82      13.57      25.85
