69

Mn       3.90      11.33       5.06
C       3.37       8.97       7.21
C       5.72      12.49       7.22
Mn       6.25       9.45       6.24
C       5.71      13.53       4.29
Mn       1.55      11.41       7.29
C       8.06       7.69       4.73
C       3.36      10.98       9.57
C       4.01      13.04       2.68
C       6.36       6.53       5.95
C       1.66      12.62       9.95
C       3.05      14.25       2.96
C       5.40       6.17       4.77
C       0.70      11.77      10.86
C       1.33      13.81       1.28
H       6.29      13.90       3.44
C       3.68       4.94       5.98
C      -1.02      13.44      11.32
H       8.64       6.75       4.83
N       4.75      12.54       3.83
H       3.94      11.53      10.32
H       5.26      14.41       4.77
N       7.10       7.78       5.81
N       2.40      11.87       8.95
H       7.61       7.66       3.72
H       2.90      10.12      10.10
N       1.65      13.99       2.69
H       6.42      13.08       5.00
N       4.00       6.07       5.12
N      -0.71      12.13      10.77
H       8.77       8.52       4.76
O       5.23       9.79       4.56
H       4.07      10.59       8.83
H       4.76      13.33       1.92
O       7.58       9.78       7.83
O       2.87      12.62       6.20
H       7.11       5.73       6.08
O       7.65      10.90       5.37
H       2.41      13.13      10.58
H       3.43      12.22       2.25
O       2.94       9.93       6.46
O       5.30      11.36       6.76
H       5.78       6.57       6.88
O       2.24      10.93       3.83
H       1.07      13.40       9.46
H       3.15      14.53       4.02
O       4.59       8.59       7.21
O      -0.12      12.68       7.55
H       5.50       6.95       3.99
H       0.80      10.71      10.58
H       3.36      15.13       2.37
H       5.71       5.22       4.30
H       1.00      11.85      11.92
H       1.36      13.17       3.22
H       3.71       6.93       5.57
H      -0.99      12.09       9.80
H       1.49      14.76       0.75
H       3.84       4.00       5.43
H      -0.86      13.43      12.41
H       1.92      13.03       0.76
H       4.27       4.88       6.92
H      -0.43      14.29      10.90
H       0.27      13.54       1.18
H       2.62       4.98       6.27
H      -2.08      13.67      11.14
C       5.79       9.87       3.34
C       8.14       8.68       8.37
C       3.44      13.63       6.88
C       1.02      10.73       4.16
