24

O      10.59      10.68       1.35
O       8.23      10.78      -1.54
Al       7.50      11.77       0.01
Al       9.15      14.52       0.01
Al      10.71      11.96       0.00
O      11.65      12.89      -1.35
O      10.49      10.65      -1.31
O       9.14      12.76      -0.00
O       6.81      13.08      -1.33
O       8.03      15.00      -1.39
O      10.54      14.88      -1.26
O       6.02      10.84       0.03
H       5.52      10.82      -0.79
C       7.20      14.04       1.92
C      11.21      14.05       1.90
C       9.45      10.39       1.87
C       7.21      14.14      -1.89
C      11.32      14.04      -1.82
C       9.39      10.48      -1.95
O       8.32      10.57       1.34
O       6.95      12.87       1.53
O       7.85      14.95       1.27
O      10.38      14.89       1.40
O      11.62      12.99       1.31
