23

Zn      17.76       4.94      31.95
Zn      14.55       4.81      31.76
Zn      16.28       2.10      31.80
Zn      16.06       3.87      34.45
C      16.13       6.95      30.50
C      13.76       2.37      30.28
C      18.88       2.65      30.49
C      16.17       0.93      34.51
C      18.54       5.45      34.75
C      13.46       5.29      34.46
O      16.16       3.94      32.48
O      17.27       6.50      30.86
O      13.54       3.59      30.59
O      17.90       1.86      30.72
O      14.98       6.43      30.74
O      19.01       3.85      30.90
O      14.73       1.66      30.68
O      16.33       0.78      33.25
O      17.60       4.76      35.26
O      16.01       2.03      35.14
O      18.74       5.65      33.51
O      13.31       5.38      33.20
O      14.45       4.77      35.09
