18

Al      -3.19       3.58       5.90
Al       0.13       3.56       5.84
H      -1.47       4.15       7.53
H      -4.82       2.17       4.82
O      -0.49       3.68       4.03
O      -2.59       1.77       5.53
O      -2.70       4.19       4.17
O      -0.35       1.69       5.89
O       0.73       3.41       7.70
O      -3.83       5.35       6.26
O      -1.52       4.05       6.56
C      -4.83       3.01       8.22
C      -4.91       5.96       5.98
C      -1.59       4.11       3.53
C      -1.49       1.15       5.73
O      -4.85       3.05       5.22
O      -3.68       3.00       7.67
O      -6.03       5.40       5.74
