12

N       1.92       5.94      44.15
Zn       0.90       4.28      43.70
N       1.80       2.63      44.47
N      -0.92       4.40      44.56
C       2.52       6.35      45.28
C       2.32       6.82      43.17
C       2.33       2.45      45.68
C       1.89       1.42      43.81
C      -2.04       3.62      44.34
C      -1.25       5.30      45.48
O       1.02       4.37      41.75
C       0.40       3.40      41.14
