20

Zn       6.20       5.24       2.08
Zn       3.32       5.16       2.01
C       4.96       2.63       2.05
C       4.60       5.43      -0.50
C       4.90       7.77       2.03
C       4.63       4.92       4.59
C       9.11       6.05       2.86
C      10.50       4.37       1.24
C      10.53       6.00       2.88
C       9.08       4.40       1.23
N       8.41       5.24       2.04
N      11.19       5.17       2.06
O       6.05       3.21       2.34
O       3.85       3.16       1.76
O       3.43       5.53       0.00
O       5.65       5.09       0.14
O       3.80       7.18       2.22
O       6.04       7.26       1.85
O       5.64       5.47       4.04
O       3.53       4.68       4.00
