36

Zn      -1.66       9.01       0.24
Zn      -4.11       5.12       0.29
Zn      -4.26       7.89      -1.42
Zn      -1.67       6.27       2.06
C      -3.89      10.22       1.87
C      -1.57      10.93      -2.19
C       0.34       5.53      -0.01
C      -5.67       6.25       2.63
C      -2.84       6.14      -3.38
C      -7.25       6.89      -1.72
C      -0.26       8.20       4.01
C      -7.07       4.96      -0.66
C      -0.20      10.04       2.81
C      -3.99       6.99       3.88
C      -5.64       9.52       0.71
C       0.40       7.36      -1.25
C      -2.71       4.26      -2.23
C      -3.32      10.20      -3.34
C      -1.30       3.17       2.59
C      -2.99       2.42       1.40
N      -3.49       9.23       1.05
N      -5.95       6.71      -1.40
N      -0.67       7.89       2.77
N      -5.85       5.51      -0.74
N      -0.63       9.04       2.01
N      -3.52       6.70       2.65
N      -4.57       8.80       0.34
N      -0.70       7.41      -0.47
N      -3.00       5.26      -1.37
N      -3.27       9.51      -2.19
N      -1.98       4.24       2.13
N      -3.04       3.77       1.39
N      -2.18       9.96      -1.48
N      -0.74       6.28       0.28
N      -3.08       6.42      -2.08
N      -4.55       6.25       1.89
