9

N      -0.26      10.01      13.30
I      -3.40       8.05      13.91
I      -0.76      10.07      17.06
Zn      -1.15       8.91      14.84
C       0.15       6.62      13.48
C       0.87       6.82      15.68
C      -0.92      10.23      12.15
C       1.01      10.45      13.42
N       0.10       7.25      14.67
