66

Zr       4.73      10.82      12.68
O       6.38       9.74      13.79
O       4.88      11.84      14.64
Zr       1.58      10.12      14.24
O       4.97      13.04      12.18
O       6.50      11.00      11.32
Zr       3.69       7.49      12.90
O       3.50       9.46      13.60
O       5.02       8.80      11.65
O       2.66      11.82      13.05
O       3.62      10.78      10.94
Zr       3.83       9.06       9.70
Zr       1.76      11.71      10.97
O       5.64       7.59      14.02
O       1.50       7.92      13.36
O       0.99      10.15      12.15
O       2.71       7.91      11.12
O       1.28       9.06      15.90
H       5.93       8.49      11.51
O      -0.79       9.44      14.22
H       1.09       7.36      14.04
H       2.61      12.71      13.43
O       0.42      11.88      14.51
H      -0.43      11.69      14.94
O       1.65       9.78       9.73
O       2.97      11.21      15.73
O      -1.10       7.99      12.49
O      -1.00       9.48      10.22
O       0.26       5.97      11.57
O       0.58       7.24       9.33
H       0.12       5.75      10.62
H       5.10      13.60      12.96
Zr       0.71       8.39      11.26
O       5.06       7.41       9.29
H      -0.63       6.05      11.98
H       1.83       9.19      16.69
O       2.56       7.70       8.30
O       5.03       6.16      11.55
O       2.96       5.50      12.98
H       4.08      13.36      11.67
H       4.31       6.56      15.53
H       4.44      10.65       7.65
H       5.07       6.53      10.59
H       2.98      13.88      10.12
H       0.26      12.52      13.25
H       2.81      11.48       8.35
O      -0.31      11.65      10.00
O       3.59      10.36       8.02
O       3.42       6.66      15.14
H       1.38      12.33       8.20
C       6.51       8.52      14.14
C       6.70      10.69      10.10
C       4.04      11.88      15.62
C      -1.45       8.58      13.59
C      -1.17      10.70       9.91
C       1.47       7.08       8.41
H       5.96       7.58       8.95
H       2.07       5.32      12.62
H       1.25       9.79       8.85
O       5.90      10.05       9.34
O       2.82      13.55      11.02
H       3.18       5.81      14.68
O       0.31      12.93      12.25
H      -0.58      12.91      11.87
O       2.17      12.27       8.76
H       4.48       5.35      11.58
