9

O       3.00       8.98       5.99
Al       3.83       9.88       4.74
O       3.45       9.32       3.12
P       2.59      12.49       5.82
O       3.38      11.57       4.85
P       6.91       9.63       4.17
P       2.34       8.71       2.24
O       5.55       9.69       4.93
P       2.34       7.65       6.43
