18

Al       1.51      13.13      16.51
O       3.18      12.32      16.44
Al       4.84      13.14      16.52
O      -0.16      13.95      16.59
O       5.37      11.84      17.85
H       3.19      11.53      15.88
O       4.30      14.47      15.24
H      -0.15      14.74      17.15
O       0.96      11.80      17.79
C       3.17      14.62      18.42
O       2.04      14.29      17.95
C      -0.17      11.65      14.61
O       5.37      11.98      15.08
C       3.17      14.80      14.76
C      -0.16      11.47      18.27
O       2.03      14.43      15.18
O       0.97      11.98      15.06
O       4.31      14.29      17.97
