20

Zn      11.14       9.05       9.51
Zn       8.29       8.98       9.76
C       9.83       6.48       9.73
C       5.59       9.25       8.74
C      13.84       8.47      10.32
C       9.59      11.55       9.37
C       9.91       9.30      12.27
C       9.55       8.94       6.99
C       5.57       8.43      10.92
C      13.85       9.89       8.47
N       6.26       8.91       9.86
N      13.17       9.13       9.35
O      10.90       7.08       9.42
O       8.47      10.94       9.37
O       8.73       7.04      10.06
O      10.73      11.02       9.58
O      10.95       9.04      11.61
O       8.53       8.66       7.66
O       8.71       9.29      11.86
O      10.71       9.25       7.43
