20

Zn      12.53       8.79       7.95
Zn      14.75      10.52       7.93
O      11.74      10.20       9.19
O      11.11       7.35       7.88
O      13.72      11.27       9.52
O      12.09       9.77       6.20
H      10.88       7.10       6.97
O      13.32      11.58       6.76
O      13.57       8.04       9.53
O      15.25       9.55       6.20
O      14.02       7.74       6.76
H      11.43       6.50       8.34
O      16.25      11.91       8.08
O      15.55       9.11       9.21
H      16.91      11.58       8.71
H      15.90      12.77       8.47
C      12.50      11.02       9.81
C      12.49      10.95       5.99
C      14.79       8.29       9.82
C      14.85       8.36       5.99
