13

Co       9.45       5.47       5.49
O       9.93       5.10       3.17
C      10.54       7.76       5.19
C       8.68       4.97       3.13
O       9.34       7.78       4.79
C      11.68       3.69       6.07
C       7.16       5.33       7.30
C       8.82       6.72       8.10
N       8.37       5.89       7.14
C       9.66       2.56       5.96
O      11.05       6.68       5.69
N      10.34       3.73       5.94
O       7.98       4.99       4.22
