30

O       7.04      -1.71       6.70
C      11.28      -4.38      11.71
In       9.75      -3.85       8.97
O      10.41      -5.63       7.83
C      12.62      -4.99       9.90
C      11.71      -1.76       8.38
C       7.85      -5.89      10.08
C      10.89      -5.93       6.69
H      12.01      -8.93       7.41
C      11.32      -8.10       7.62
H      11.59      -7.60       8.56
C      11.86      -7.65       5.22
H      10.31      -8.51       7.73
C      10.89      -4.97       5.53
H      12.62      -8.42       5.39
N       9.33      -3.10      11.14
H      11.03      -8.10       4.65
N      11.46      -4.51      10.38
H      12.32      -6.84       4.64
N       7.90      -2.42       7.25
H      10.35      -5.41       4.68
N      11.40      -7.15       6.51
H      10.41      -4.04       5.82
H      11.92      -4.77       5.20
O      11.23      -2.81       7.79
O       7.92      -4.92       9.21
C       8.34      -2.26      11.43
O       8.41      -3.43       6.69
O       8.31      -2.14       8.45
C      10.09      -3.63      12.13
