18

Al       1.63       6.28       7.33
O       3.30       7.07       7.33
Al       4.96       6.24       7.33
O      -0.03       5.45       7.33
H       3.32       8.02       7.19
H      -0.01       4.50       7.47
C       3.29       4.66       9.15
C       3.28       4.67       5.50
C      -0.05       7.86       5.51
C      -0.05       7.85       9.16
O       4.42       4.99       5.98
O       4.42       4.98       8.67
O       1.09       7.53       8.69
O       1.09       7.54       5.99
O       2.16       5.05       8.71
O       2.15       5.06       5.94
O       5.49       7.47       5.95
O       5.49       7.46       8.73
