15

Cu       1.89       3.27       4.85
Cu       3.35       4.47       2.31
Cu       4.40       1.76       3.72
C       0.37       5.73       4.57
N       1.88       5.37       3.00
N       1.33       4.88       4.15
N       2.38       1.67       5.61
N       3.53       1.05       5.19
C       1.82       0.92       6.58
C       1.27       6.53       2.69
N       4.83       3.59       1.64
C       6.29       1.93       1.51
C       5.61       3.83       0.57
N       5.25       2.42       2.22
C       3.69      -0.08       5.91
