20

Zn       7.15       8.55       6.74
Zn       7.22       5.67       6.02
C       6.71       7.80       3.96
C       9.71       6.96       6.22
C       7.28       3.19       4.60
C       7.15       6.70       9.00
C       6.09       2.62       6.54
C       7.93      11.41       6.55
C       6.71      10.88       8.47
C       4.62       7.01       6.42
N       7.30      10.51       7.30
N       6.77       3.55       5.78
O       6.57       8.74       4.81
O       7.31       6.69       4.18
O       9.07       8.05       6.28
O       9.21       5.79       6.12
O       7.47       7.88       8.72
O       7.16       5.74       8.14
O       5.15       7.96       7.08
O       5.25       6.06       5.85
