15

Zn       2.62       4.78       6.84
Zn       4.52       3.85       8.82
O       6.43       2.77       8.64
C       2.53       2.00       8.25
O       3.47       4.25       5.08
O       4.79       3.65       6.77
C       4.53       3.70       5.53
C       4.94       6.49       7.91
O       3.89       6.39       7.23
O       5.40       5.63       8.75
C       6.80       2.67       7.45
O       1.22       5.51       7.99
O       2.06       2.83       7.43
O       3.55       2.13       9.00
C       1.64       5.47       9.21
