20

Zn       8.86       8.09       5.90
Zn       9.07       9.31       8.82
C       8.54      10.91       6.18
C       9.48       6.55       8.61
C       8.47      11.21      10.98
C       9.49       6.23       3.71
C      10.25       9.86      11.66
C       7.70       7.57       3.08
C       6.49       8.27       7.79
C      11.46       9.01       6.85
N       9.42      10.26      10.71
N       8.55       7.15       4.02
O       8.47      10.03       5.27
O       9.41       7.41       9.54
O       8.53      10.71       7.43
O       9.56       6.79       7.37
O       7.04       7.75       6.76
O      10.95       9.46       7.92
O       7.04       8.78       8.80
O      10.87       8.64       5.79
