24

Al       8.56       3.10       0.00
Al       6.74       5.74      -0.02
Al       5.38       3.07      -0.01
H      10.74       2.50      -0.64
O       9.15       4.37      -1.40
O       5.39       6.02      -1.31
C       6.75       1.67      -1.96
C       8.68       5.40      -1.96
C       4.71       5.11      -1.90
O       5.63       1.75      -1.30
O       7.87       2.02      -1.51
O       7.88       6.25      -1.40
O       4.43       3.97      -1.39
O       9.04       4.31       1.50
O       5.44       6.02       1.34
O       5.60       1.85       1.38
O       7.85       1.91       1.35
O       7.94       6.27       1.29
O       4.37       4.04       1.25
O       6.88       3.99      -0.02
O      10.10       2.26       0.05
C       6.76       1.66       1.92
C       8.65       5.42       1.95
C       4.67       5.13       1.84
