15

Cu       7.39      26.20       7.32
Cu       7.37      24.01       5.02
Cu       5.15      23.95       7.32
N       8.66      25.33       4.99
N       8.66      26.28       5.98
C       9.62      27.18       5.70
N       6.11      26.21       8.64
N       5.14      25.24       8.64
C       9.61      25.66       4.10
N       6.06      22.71       4.99
C       5.84      27.08       9.63
C       5.75      21.76       4.08
N       5.10      22.69       5.97
C       4.21      21.73       5.67
C       4.27      25.51       9.64
