18

Al       1.62      13.70      19.27
C       3.26      15.16      21.23
Al       4.93      13.72      19.32
C      -0.05      12.25      17.37
C       3.28      15.43      17.60
C      -0.03      11.98      21.00
O       4.40      15.08      18.07
O       1.09      12.34      20.53
O       2.14      14.85      20.72
O      -1.17      12.57      17.87
O       2.13      15.02      17.95
O      -1.18      12.40      20.65
O       1.10      12.57      17.81
O       4.41      14.85      20.78
O       3.28      12.90      19.24
O      -0.03      14.51      19.36
H       3.29      11.98      18.96
H      -0.02      15.44      19.64
