18

Al       0.01      17.15       8.87
Al       3.40      17.16       8.85
H       1.70      18.92       8.86
H      -1.69      15.40       8.86
C      -1.68      18.78      10.64
C      -1.67      18.78       7.08
C       1.70      15.53       7.08
C       1.71      15.53      10.64
O      -0.54      18.39      10.23
O      -2.82      18.41       7.49
O       2.85      15.92       7.48
O       0.56      15.91      10.24
O       0.56      15.90       7.52
O       2.85      15.91      10.20
O      -2.82      18.41      10.22
O      -0.54      18.40       7.51
O       1.70      17.95       8.86
O      -1.69      16.36       8.86
