14

O      -1.44       9.85       0.23
O      -2.87      10.78      -1.26
O      -0.99       7.02       0.04
O      -2.34       7.71      -1.66
Zn      -2.25       8.11       1.10
Zn      -3.78       9.10      -0.89
C      -4.89       6.85       0.01
C      -4.00       9.75       2.18
C      -1.86      10.83      -0.46
C      -1.36       7.06      -1.18
O      -3.88       6.83       0.76
O      -5.14       7.71      -0.91
O      -2.99       9.09       2.62
O      -4.36       9.80       0.96
