21

Ni       7.35       3.76       6.51
H       7.71       2.18       4.63
H       6.99       5.33       8.39
H       4.83       3.79       6.79
H       9.87       3.72       6.23
N       7.20       1.93       5.49
N       7.50       5.58       7.53
N       5.36       4.05       5.95
N       9.33       3.46       7.06
O       7.97       4.79       4.78
O       6.73       2.72       8.24
C       5.76       1.74       5.25
C       8.93       5.78       7.77
C       5.12       3.07       4.88
C       9.58       4.44       8.13
C       5.02       5.44       5.58
C       9.68       2.07       7.44
C       7.87       0.79       6.12
C       6.83       6.72       6.90
C       8.60       4.30       3.78
C       6.10       3.21       9.24
