18

C      11.06       4.30       1.93
Zn      13.61       5.46       0.80
C      15.23       7.95       1.15
C      13.20      -0.72       1.16
Zn      12.71       2.16       0.62
N      12.29       0.18       0.74
C      11.14      -0.28       0.21
O      11.82       5.29       1.67
C      12.94       8.27       1.17
C      15.14       3.21       2.03
O      11.29       3.08       1.64
C      14.23       5.33      -1.80
O      14.38       2.25       1.69
O      14.95       4.45       1.79
C      12.14       2.34      -1.95
N      13.99       7.42       1.15
O      13.25       2.35      -1.29
O      13.13       5.43      -1.12
