17

N       3.35       4.80      12.73
Cd       3.08       3.08      10.95
N       2.82       1.37      12.73
H      -0.05       2.81      11.58
H       6.21       3.36      11.58
C       2.26       5.40      13.25
C       3.90       0.76      13.25
C       4.54       5.10      13.27
C       1.62       1.07      13.27
C       2.34       4.96       8.18
C       3.82       1.20       8.18
C       4.45       5.47       8.94
C       1.71       0.70       8.94
S       0.55       3.63      10.69
S       5.61       2.54      10.69
N       3.34       4.72       9.04
N       2.83       1.44       9.04
