15

C       9.72      15.67       4.18
C       7.68      14.91       4.56
C      12.36      16.69      10.42
N       8.28      15.10       5.75
Cu      10.65      15.97       6.93
N      11.79      16.40       8.31
N       9.55      15.58       5.52
C      13.06      16.87       8.33
N      11.36      16.29       9.61
Cu       7.71      14.92       7.50
N       7.11      14.74       9.23
Cu       9.65      15.66       9.92
C       5.92      14.35       9.75
N       7.95      15.03      10.27
C       7.28      14.82      11.42
