20

Cu       6.46       6.62       6.00
Si       2.56       6.16       5.57
C       4.79       6.32       8.36
C       6.78       7.31       8.98
C       7.91       7.43       3.38
C       6.35       5.87       2.84
C       4.80       8.92       5.43
C       6.80       9.63       6.36
C       7.90       4.15       7.06
C       6.38       3.48       5.51
N       6.03       6.74       8.04
N       6.80       6.76       3.73
N       6.05       8.63       5.88
N       6.82       4.45       6.32
F       4.34       6.09       5.53
F       0.81       6.28       5.66
F       2.61       5.03       6.85
F       2.63       7.30       4.30
F       2.67       7.43       6.70
F       2.42       4.91       4.46
