23

Zn      26.16       8.48      16.28
Zn      27.81       7.44      13.76
Zn      27.86       5.72      16.44
Zn      29.40       8.56      16.27
C      27.82       4.48      13.76
C      25.24       8.90      13.52
O      27.80       7.55      15.72
O      27.80       5.59      13.13
C      30.38       6.21      17.84
C      27.77      10.62      17.60
O      25.04       9.08      14.78
C      25.26       6.17      17.85
O      26.25       5.44      17.53
O      28.93      10.18      17.30
O      30.49       7.41      17.44
O      26.65      10.10      17.29
O      29.39       8.28      12.99
O      26.22       8.29      13.00
C      30.36       8.92      13.52
O      25.05       7.38      17.47
O      27.84       4.33      15.04
O      30.53       9.14      14.77
O      29.44       5.39      17.55
