23

Zn       7.52       9.04      15.53
Zn       7.27      10.83      18.19
Zn       8.97      11.88      15.65
Zn       5.76      11.78      15.59
O       7.38      10.87      16.23
O       7.38       7.71      16.96
O       8.71      11.92      19.00
O      10.13      10.79      14.51
O       7.45       9.00      18.85
O       9.17       8.72      14.52
O      10.08      12.32      17.23
O       8.48      13.52      14.72
C       7.41       7.88      18.24
O       4.68      10.47      14.56
O       6.05       8.68      14.24
C      10.09       9.56      14.20
C       5.00       9.36      14.03
O       5.62      11.61      18.89
O       6.22      13.29      14.46
O       4.57      12.39      17.02
C       9.76      12.38      18.46
C       4.68      12.21      18.28
C       7.33      13.89      14.27
