18

O       1.29      12.16      15.70
O       4.71      14.70      18.38
Al       1.87      13.50      16.93
Al       5.20      13.52      16.93
O       3.54      12.69      17.00
O      -0.95      12.44      15.46
O       5.77      12.19      18.25
O       0.22      14.35      16.97
C       3.58      15.15      18.75
C       3.49      15.02      15.06
C       0.18      11.97      15.10
C       0.24      11.98      18.83
H       3.56      11.89      17.55
H       0.23      15.14      17.53
O       4.60      14.82      15.65
O       2.46      14.91      18.18
O       1.38      12.42      18.45
O       2.36      14.56      15.42
