23

Zn      18.08       5.26      32.11
Zn      14.89       5.10      31.89
Zn      16.55       2.41      31.93
Zn      16.43       4.22      34.59
C      16.47       7.25      30.63
C      14.05       2.70      30.34
C      19.17       2.93      30.65
C      16.49       1.26      34.65
C      18.95       5.79      34.91
C      13.81       5.58      34.60
O      16.49       4.24      32.63
O      17.62       6.80      30.96
O      13.93       3.95      30.64
O      18.18       2.14      30.85
O      15.34       6.75      30.92
O      19.31       4.12      31.07
O      15.00       1.97      30.82
O      16.60       1.09      33.39
O      17.99       5.08      35.40
O      16.38       2.37      35.27
O      19.07       5.98      33.64
O      13.65       5.60      33.33
O      14.81       5.12      35.25
