23

Zn       8.00      -0.02      18.73
Zn       9.75      -1.51      20.91
Zn       9.60       1.65      20.84
Zn      11.24       0.11      18.52
O       9.68       0.05      19.72
O       7.00      -1.68      19.03
O       9.98      -0.98      22.79
O       8.11       2.85      20.38
O       8.10      -2.57      20.81
O       6.78       1.45      19.19
O       9.42       1.22      22.74
O      11.26       2.66      20.62
O      10.66       0.05      16.63
O      12.33       1.73      18.84
O       8.40       0.17      16.83
O      11.23      -2.68      20.40
O      12.40      -1.45      18.89
C       7.16      -2.55      19.94
C       9.72       0.14      23.35
C       7.03       2.55      19.78
C      12.19       2.62      19.75
C       9.48       0.09      16.14
C      12.24      -2.46      19.64
