23

Zn      15.05       8.98       0.81
Zn      13.56       8.08      -1.99
Zn      11.90       8.95       0.59
Zn      13.60       6.20       0.58
O      16.14       7.79       1.92
O      11.93       8.92      -2.71
O      13.54       6.28      -2.79
O      10.67       9.36      -0.87
O      10.98       7.82       1.90
O      12.30      10.68       1.45
O      12.18       5.88       1.89
O      15.31       5.72       1.45
C      13.65       5.16      -2.19
C      13.33      10.95       2.15
C      16.19       9.43      -1.85
C      11.22       6.63       2.28
C      10.86       9.30      -2.13
C      16.14       6.51       2.00
O      13.53       8.06      -0.03
O      13.55       4.96      -0.94
O      16.18       9.71      -0.61
O      14.44      10.32       2.12
O      15.23       8.95      -2.55
