15

Cu      12.34      20.31      10.19
Cu      12.37      19.25      13.18
Cu      12.34      22.39      12.59
N      12.37      18.03      11.80
N      12.35      18.50      10.50
N      12.31      22.11       9.82
N      12.32      23.02      10.86
N      12.34      21.79      14.34
N      12.36      20.44      14.59
C      12.33      17.44       9.67
C      12.36      16.69      11.76
C      12.29      24.26      10.33
C      12.28      22.79       8.66
C      12.34      20.26      15.93
C      12.31      22.45      15.51
