18

Al       5.56       6.36       8.53
Al       8.90       6.40       8.51
C       3.88       7.96       6.66
C       3.93       7.95      10.33
C       7.27       4.86      10.38
C       7.21       4.80       6.67
O       7.22       7.20       8.48
H       7.19       8.07       8.06
H       3.86       4.75       7.94
O       4.99       7.70       7.24
O       6.06       5.20       7.05
O       9.49       7.72       9.75
O       6.15       5.07       9.80
O       9.39       7.55       7.02
O       3.88       5.56       8.47
O       8.40       5.31       9.99
O       8.32       5.06       7.24
O       5.06       7.47       9.99
