24

Zn       5.08      10.04      19.02
Zn      -1.78       9.63      20.31
Zn       8.51       9.19      19.46
Zn       1.65      10.48      19.87
O       3.22      10.62      18.48
O       6.03      11.82      19.07
O       8.10      11.12      19.71
C       2.48      10.91      17.42
C       7.27      12.00      19.34
O      10.08       9.05      20.85
O      -0.83       7.85      20.26
O       1.24       8.55      19.62
O       6.65       8.64      18.88
O       9.46       9.24      17.68
C       9.35       8.76      21.91
O      -2.20       9.88      18.38
C       0.40       7.66      19.99
O      -0.22      11.02      20.45
O       2.60      10.43      21.65
O       4.67       9.79      20.95
C       5.91       7.59      18.59
C      10.70       9.51      17.49
C      -0.95      12.08      20.74
C       3.84      10.16      21.84
