44

Dy       6.29       5.74      20.71
Dy       2.52       5.53      21.61
Dy       9.96       5.43      21.62
O       1.78       3.78      20.41
O       8.17       4.42      20.16
O       9.51       3.11      21.36
Dy      13.73       5.21      20.71
O      14.79       3.86      19.18
C       0.88       8.87      19.55
C       8.49       7.60      19.46
C       1.23       7.71      20.41
C       8.32       2.09      19.55
C       1.04       3.36      19.45
C       8.67       3.25      20.41
C      12.23       7.63      22.46
C       5.05       7.78      22.22
C       4.40       5.22      18.67
O       7.67       5.72      22.62
O       9.37       5.01      23.85
C       4.79       3.33      22.45
C      12.49       3.18      22.21
O       9.23       7.18      20.42
O       7.36       7.11      19.18
O       0.73       6.54      20.16
O       2.07       7.85      21.35
C      11.83       5.75      18.68
O      11.07       7.14      22.61
O      13.06       7.21      21.58
O       4.52       6.59      22.30
O       5.99       7.97      21.39
O       3.94       5.80      19.75
O       5.63       4.89      18.63
C       8.12       5.22      23.73
C       7.20       4.86      24.83
O       3.62       3.82      22.60
O       5.62       3.75      21.58
O      11.96       4.36      22.31
O      13.43       2.99      21.39
O      11.37       5.16      19.75
O      13.05       6.08      18.64
C       0.68       5.73      23.73
C      -0.24       6.10      24.83
O       0.23       5.23      22.61
O       1.92       5.95      23.85
