15

Cu       6.08      24.58       2.26
Cu       3.47      23.26       3.61
Cu       4.62      26.01       4.65
C       5.87      22.12       0.68
C       3.92      21.37       1.42
C       7.02      27.67       4.49
C       7.90      26.86       2.62
C       1.76      23.67       5.98
N       4.23      22.48       2.12
N       5.43      22.96       1.64
N       6.78      26.17       2.89
N       6.22      26.68       4.04
N       3.07      25.34       5.38
N       2.71      24.04       5.10
C       2.31      25.77       6.40
