15

O       5.04      16.47      17.64
N       5.81      13.43      17.09
C       4.59      14.53      13.95
Mn       5.85      15.44      16.01
N       8.04      14.85      16.28
C       7.00      13.04      17.60
O       5.85      14.67      13.83
C       8.11      13.88      17.19
N       5.98      17.49      15.03
O       3.99      14.72      15.07
C       9.29      15.41      16.28
C       6.41      18.57      15.72
C       5.69      17.68      13.72
C       4.71      12.77      17.47
C       5.50      16.16      18.81
