47

Fe       0.13       0.23      12.18
H       4.90       3.54      12.45
H       1.76       5.28      12.44
H      -1.51      -4.82      11.92
H      -4.65      -3.08      11.91
H       3.07       4.13      10.35
H      -2.81      -3.67      14.01
H       3.18       3.92      14.33
H      -2.93      -3.46      10.03
H       4.34       0.83      11.65
H      -0.29       3.37      12.70
H       0.55      -2.91      11.66
H      -4.08      -0.37      12.71
H       2.03       1.70      10.22
H      -1.78      -1.24      14.14
H       1.50       1.78      14.42
H      -1.25      -1.32       9.94
C      -2.14       1.83      13.42
C       2.39      -1.37      10.94
C      -2.11       1.89      10.96
C       2.36      -1.42      13.40
C       1.07      -0.59      14.97
C       1.14      -0.43       9.39
C      -0.82       1.05       9.39
C      -0.89       0.89      14.97
C       3.92       3.08      12.30
C       1.93       4.20      12.39
C      -1.67      -3.74      11.97
C      -3.67      -2.62      12.07
C       2.82       3.60      11.28
C      -2.56      -3.14      13.09
C       2.83       3.45      13.41
C      -2.58      -2.98      10.95
C       3.74       1.74      11.72
C       0.78       3.22      12.68
C      -0.53      -2.75      11.68
C      -3.48      -1.28      12.65
C       2.40       2.10      11.17
C      -2.14      -1.64      13.19
C       1.71       2.42      13.56
C      -1.45      -1.96      10.80
N      -1.02       1.02      13.60
N       1.28      -0.56      10.76
N      -0.99       1.10      10.77
N       1.24      -0.64      13.59
N       1.31       1.90      12.23
N      -1.06      -1.44      12.13
