20

Zn       5.71       9.68       8.96
Zn       5.64       6.88       8.96
C       5.69       8.28      11.59
C       6.46       4.14       8.15
C       6.55      12.41       8.15
C       4.80       4.15       9.77
C       3.05       8.32       8.99
C       8.29       8.24       8.93
C       5.65       8.28       6.34
C       4.88      12.42       9.77
N       5.71      11.73       8.96
N       5.63       4.83       8.96
O       5.70       9.41      11.00
O       5.65       7.15       6.92
O       5.69       9.41       6.91
O       5.66       7.14      11.01
O       3.65       9.45       8.97
O       7.70       7.11       8.95
O       7.75       9.39       8.91
O       3.60       7.17       9.01
