11

Zn      18.10      14.41       6.66
H      19.28      14.33       4.49
N      17.95      12.66       7.78
O      16.38      15.36       6.33
C      18.79      11.67       7.39
O      18.89      13.68       5.10
C      18.78      15.79       9.18
C      19.92      16.74       7.41
C      17.21      12.47       8.89
N      19.10      15.76       7.87
C      15.65      15.59       7.39
