42

Eu       1.92       7.21      11.61
N      -0.73       3.77      13.22
Eu      -1.43       9.32      12.68
N       1.22      12.76      11.06
O       0.64       8.65      13.60
O      -0.15       7.88      10.68
O       2.66       9.12      12.87
O       4.26       7.41      11.41
O       2.77       6.31      13.66
O      -2.28      10.22      10.62
O      -1.81       7.51      14.21
O       2.30       9.03      10.07
O      -2.12      10.63      14.34
O       2.61       5.91       9.94
H       1.03       4.63      13.87
O       0.36       5.46      12.13
H      -0.54      11.91      10.41
O       0.13      11.07      12.15
H       0.12       3.04      14.99
H       0.37      13.50       9.29
H      -0.72       1.81      13.99
H       1.21      14.72      10.29
H      -1.66       3.00      14.95
H       2.15      13.53       9.33
H      -1.67       4.44      11.48
H       2.16      12.10      12.80
H      -2.78       3.91      12.78
H       3.27      12.62      11.50
H      -1.87       2.69      11.83
H       2.36      13.85      12.45
C       1.77       9.25      13.79
C      -1.28       7.28      10.49
C      -3.11      10.67      15.19
C       3.60       5.87       9.09
C       3.76       6.56      14.42
C       3.15       9.97       9.86
C       0.26       4.65      13.08
C       0.23      11.88      11.20
C      -0.75       2.85      14.35
C       1.24      13.68       9.93
C      -1.83       3.70      12.27
C       2.32      12.84      12.01
