24

Al      20.18      13.14      25.82
Al      18.57      10.42      26.35
Al      17.00      12.98      26.20
O      21.66      14.02      25.51
H      22.06      14.46      26.27
C      20.75      11.03      27.94
C      16.64      11.12      28.34
C      18.45      14.76      27.74
C      20.31      10.59      24.21
C      16.25      10.66      24.73
C      18.06      14.29      24.00
O      19.54      14.45      27.17
O      20.96      12.13      27.35
O      19.95      10.10      27.56
O      17.44      10.24      27.89
O      16.20      12.14      27.72
O      17.27      14.40      27.36
O      19.25      14.04      24.32
O      20.67      11.76      24.51
O      19.61       9.79      24.95
O      17.10       9.89      25.30
O      15.95      11.84      25.11
O      17.01      14.12      24.73
O      18.56      12.17      26.14
