23

Zn      12.85      14.15      10.10
Zn      13.04      12.40       7.42
Zn      11.36      15.12       7.41
Zn      14.56      15.19       7.58
C      12.98      11.20      10.13
C      10.54      12.72       5.88
C      10.24      15.52      10.12
C      13.00      17.23       6.10
C      15.35      15.71      10.39
C      15.65      12.86       6.10
O      12.95      14.22       8.14
O      12.89      12.30      10.77
O      11.52      11.98       6.26
O      10.14      15.67       8.85
O      13.07      11.05       8.86
O      11.19      14.97      10.76
O      10.34      13.93       6.22
O      11.86      16.71       6.38
O      15.56      15.85       9.14
O      14.15      16.77       6.48
O      14.37      15.09      10.92
O      14.66      12.06       6.36
O      15.75      14.07       6.51
