10

Al       0.01      25.18       8.72
O      -1.04      24.23       7.43
O      -1.04      24.53      10.19
O      -1.04      26.78       8.55
O       1.06      23.58       8.56
O       1.06      26.12       7.42
O       1.06      25.84      10.19
C      -1.98      23.40       7.70
C      -1.98      25.18      10.78
C      -1.98      26.96       7.69
