23

Zn       7.57       9.06      15.55
Zn       7.44      10.88      18.23
Zn       9.05      11.94      15.68
Zn       5.87      11.82      15.62
C       7.49       7.92      18.28
C       9.91      12.46      18.46
C      10.18       9.60      14.26
C       7.42      13.94      14.28
C       5.06       9.44      14.04
C       4.82      12.26      18.33
O       7.48      10.90      16.26
O       7.55       7.73      17.01
O       8.97      11.81      19.03
O      10.25      10.82      14.62
O       7.45       9.03      18.89
O       9.23       8.77      14.53
O      10.06      12.62      17.21
O       8.59      13.51      14.59
O       4.86      10.62      14.45
O       6.30      13.43      14.60
O       6.05       8.69      14.35
O       5.81      11.72      18.93
O       4.67      12.39      17.07
