36

In      -2.19      -1.10      10.72
In       0.51      -0.23       8.40
In      -4.89       1.34      10.31
H      -2.34      -2.88      12.69
H       0.36      -1.05       5.88
H      -5.04       3.94      10.87
H      -3.42      -3.45      11.49
H      -0.72       0.27       5.97
H      -6.12       3.19      11.96
H      -4.42      -0.90       9.11
H      -1.73       1.07       9.38
H      -7.12      -0.15      10.95
C      -3.32       1.00      12.96
C      -0.62      -3.22       9.11
C      -6.01       2.23       7.37
C       0.03      -1.92      12.83
C       2.73      -1.65       6.64
C      -2.67       3.58       9.97
C      -4.28      -2.27      12.95
C      -1.58      -1.58       6.27
C      -6.98       3.86      10.22
N      -3.19      -2.67      12.12
N      -0.49      -0.66       6.34
N      -5.89       3.34      10.98
O      -2.38       0.39      12.35
O       0.31      -2.38       8.87
O      -5.08       2.01       8.21
O      -4.47       1.27      12.48
O      -1.78      -2.93       9.58
O       0.93       1.67       7.38
O      -0.19      -1.36      11.67
O       2.51      -0.93       7.70
O      -2.89       2.30      10.07
O      -4.14      -0.62      10.01
O      -1.44       0.14       9.17
O      -6.84       0.49      10.25
