19

C       4.43       2.37      14.27
Co       4.68       0.01      16.32
C       4.93      -2.35      18.38
C       2.78       0.80      13.91
C       6.58      -0.79      18.74
C       4.58      -2.16      14.22
C       4.78       2.17      18.43
C       2.82      -2.28      15.53
C       6.54       2.29      17.11
N       6.33       0.04      15.20
N       3.03      -0.03      17.45
N       4.00      -1.58      15.34
C       7.37       0.96      15.23
N       5.36       1.59      17.31
N       3.78       1.26      14.68
C       1.99      -0.95      17.41
N       5.58      -1.25      17.97
C       6.59      -0.74      14.09
C       2.77       0.75      18.55
