20

Dy      -2.31       7.99      16.69
Dy      -7.02       8.42      17.45
C      -0.27       7.42      19.25
O      -5.69       8.37      15.67
O      -3.60       8.47      14.87
O      -5.88       6.53      18.02
O      -3.75       6.37      17.32
O      -3.46       9.61      17.74
O      -5.61       9.97      18.23
O      -1.09       6.14      15.99
O       0.84       7.26      16.14
O       1.11      10.16      16.44
O      -0.98       9.59      15.85
C      -4.86       8.60      14.73
O       0.95       7.79      19.21
O      -1.20       8.03      18.61
C      -4.83       5.86      17.73
C       0.18       6.18      15.91
C      -4.49      10.34      17.74
C       0.09      10.26      15.69
