23

Zn      -4.82       5.32      15.37
Zn      -6.26       3.48      17.66
Zn      -7.98       4.91      15.35
Zn      -6.60       6.65      17.68
C      -8.66       2.28      16.51
C      -4.21       7.93      16.52
C      -6.41       5.10      12.88
C      -6.43       5.09      20.15
C      -9.23       7.31      16.52
C      -3.61       2.88      16.52
O      -6.41       5.08      16.52
O      -7.82       2.30      17.46
O      -4.03       7.11      15.57
O      -7.56       5.02      13.43
O      -6.62       6.22      19.60
O      -9.31       6.31      15.73
O      -8.28       7.62      17.30
O      -4.57       2.57      17.30
O      -3.53       3.88      15.73
O      -5.28       5.20      13.45
O      -6.26       3.96      19.58
O      -8.80       3.15      15.59
O      -5.09       7.87      17.45
