18

Zn       5.98       8.03      11.88
Zn       8.75       8.04      11.88
C      11.96       8.03      11.86
C       2.78       8.05      11.90
O       6.24       8.32       9.84
N      10.80       8.03      11.90
N       3.93       8.04      11.87
C       7.39      10.61      11.87
C       7.39       5.46      11.90
C       7.33       8.01      14.47
C       7.36       8.07       9.29
O       6.29      10.03      12.15
O       8.49       6.04      12.19
O       8.50      10.04      11.58
O       6.28       6.04      11.60
O       6.22       7.74      13.91
O       8.44       7.75       9.86
O       8.41       8.34      13.90
