14

Zn       1.44      12.50       0.01
Zn       4.19      12.53      -0.00
C       2.24      15.02      -0.00
C       3.40      12.52       2.51
O       1.17      10.59       0.02
O       3.45      10.57       0.01
O       4.52      12.53      -1.94
O       2.26      12.49      -1.90
O       3.39      14.47      -0.01
O       1.11      14.40       0.00
O       2.28      12.52       1.91
O       4.55      12.54       1.93
C       3.37      12.52      -2.51
C       2.32       9.99       0.02
