20

Zn       8.70       9.35       8.65
Zn       8.46       6.51       8.47
C       8.68       8.09       5.97
C       7.31       3.92       9.30
C       9.85      11.94       7.81
C       8.60       3.78       7.36
C       8.78       7.79      11.14
C       8.59      12.09       9.77
C      11.22       7.56       8.48
C       5.95       8.28       8.63
N       8.07       4.51       8.37
N       9.09      11.36       8.75
O       8.66       9.19       6.61
O       8.62       6.70      10.49
O       8.57       6.93       6.48
O       8.72       8.96      10.65
O      10.68       8.68       8.67
O       6.48       7.15       8.42
O      10.59       6.44       8.32
O       6.59       9.38       8.81
