14

Zn       3.96      17.20       0.96
Zn       2.51      18.43      -0.94
O       2.47      18.36       1.80
C       2.00      15.56       0.20
O       1.33      19.49       0.19
C       1.60      19.21       1.42
O       5.46      18.41       1.21
O       4.25      19.50      -0.36
C       5.29      19.36       0.35
O       4.58      16.69      -1.01
O       3.46      17.91      -2.56
O       2.93      15.56       1.10
O       1.71      16.52      -0.57
C       4.40      17.10      -2.19
