14

Zn       5.23      25.17       9.60
O       5.31      27.11       7.58
O       3.30      25.88       9.54
O       3.25      28.14       9.56
Zn       5.18      27.86       9.48
C       7.69      27.10       9.78
O       5.22      24.83      11.54
O       5.06      27.08      11.51
C       2.68      26.98       9.61
C       5.28      25.96       7.03
C       5.13      25.96      12.14
O       7.11      25.98       9.69
O       7.08      28.24       9.73
O       5.25      24.84       7.66
