18

Al       5.70       7.05       8.36
Al       2.38       7.05       8.36
H       4.06       7.63       6.72
H       7.34       6.47      10.01
O       6.17       8.92       8.41
O       8.53       6.46       6.59
C       7.31       9.45       8.19
C       7.41       6.58       6.00
C       4.09       4.65       8.54
C       3.99       7.52      10.73
O       3.01       5.29       8.77
O       5.09       7.20      10.18
O       5.23       5.18       8.32
O       2.87       7.64      10.14
O       8.39       8.81       7.96
O       6.31       6.90       6.55
O       4.04       7.53       7.68
O       7.36       6.57       9.05
