23

Zn      22.37       7.83       0.56
Zn      23.88      10.68       0.71
Zn      25.56       7.93       0.69
Zn      24.10       8.92      -1.94
C      21.27      10.17       2.00
C      26.39      10.34       2.27
C      23.98       5.82       2.00
C      26.69       7.51      -2.00
C      21.58       7.33      -2.27
O      23.97       8.84       0.01
O      21.17       8.94       1.64
O      25.40      11.05       1.89
O      25.12       6.33       1.74
O      22.23      10.98       1.73
O      22.84       6.26       1.64
O      26.60       9.11       1.89
O      26.79       7.38      -0.73
O      22.58       7.97      -2.79
O      25.72       8.06      -2.64
O      21.38       7.21      -1.02
O      23.90      12.01      -0.73
O      24.06      10.75      -2.63
C      23.98      11.86      -2.00
