18

Al       3.21       4.83       7.46
Al       6.52       4.89       7.47
H       4.84       6.27       8.54
H       1.50       3.26       6.81
O       4.85       5.46       8.00
O       2.72       6.66       7.07
O       7.00       4.79       9.31
C       1.62       7.25       7.26
C       1.51       4.92       9.87
C       4.83       2.45       7.63
C       4.91       4.98       5.05
O       5.94       3.03       7.43
O       3.83       4.64       5.64
O       3.70       2.99       7.80
O       6.04       5.13       5.63
O       7.12       6.71       7.46
O       2.63       5.01       9.27
O       1.54       4.22       6.92
