18

Al       1.57       7.19      14.83
O       2.10       8.57      16.09
Al       4.90       7.19      14.80
O       5.43       5.81      13.55
O       1.03       6.09      16.30
O       4.37       8.57      16.05
O       4.37       8.29      13.34
O       3.24       6.37      14.94
O      -0.09       8.01      14.70
O       1.04       5.81      13.59
H       3.24       5.66      15.60
O       2.11       8.26      13.35
H      -0.09       8.72      14.04
C       3.23       8.63      12.88
C      -0.10       5.75      16.76
O      -1.23       6.13      16.29
C       3.25       8.96      16.49
C      -0.08       5.42      13.15
