13

Mo       9.74       7.90       2.83
O      11.28       7.68       1.69
C       9.65       5.47       0.71
O       8.21       7.08       3.85
O       8.84       9.01       1.89
C       7.61       5.99       3.38
O      10.36       8.77       4.19
N       9.11       6.02       1.79
C      11.46       4.85       3.49
C      11.61       7.03       0.56
N       8.03       5.36       2.32
N      11.07       6.02       4.04
C      11.62       6.36       5.22
