54

Zr      13.57      13.41      16.44
Zr      16.45      12.55      14.57
Zr      14.85      16.67      16.92
Zr      14.51      15.36      13.64
Zr      16.80      13.87      17.83
Zr      17.72      15.83      15.04
H      13.76      12.64      13.72
H      14.39      14.67      18.90
H      15.73      17.81      14.56
H      18.85      13.46      15.89
C      13.79      10.56      15.03
C      14.70      11.87      19.08
C      19.57      15.35      17.84
O      12.84      16.51      17.91
O      14.94      10.66      14.52
O      11.73      13.39      14.87
O      13.73      12.20      18.33
O      15.77      12.57      19.26
O      12.43      14.88      13.30
O      13.32      11.32      15.96
O      12.03      14.41      17.62
O      15.61      12.96      16.40
O      13.99      15.27      15.65
O      14.30      13.20      14.30
O      14.70      14.66      17.98
O      18.37      12.77      13.42
O      16.46      18.48      17.03
O      14.57      13.84      11.76
O      17.87      11.90      17.72
O      16.80      15.49      19.63
O      13.28      17.25      13.81
O      17.63      16.88      13.05
O      19.48      15.91      16.71
C      12.11      15.53      18.26
O      15.56      16.60      12.17
O      18.85      14.36      18.25
C      11.66      13.94      13.73
O      16.05      12.27      12.47
O      13.58      18.12      15.88
O      17.66      11.06      15.62
O      19.22      14.85      13.78
O      16.68      15.69      16.83
C      19.09      13.77      13.09
C      16.67      17.23      12.30
O      15.26      17.04      18.99
C      18.26      11.16      16.76
C      15.14      12.70      11.68
C      17.61      18.60      16.51
O      18.06      17.90      15.52
C      16.24      16.63      19.73
C      12.92      17.97      14.78
O      16.36      14.58      14.10
O      15.71      16.88      14.85
O      17.92      13.75      15.86
