23

C      19.31      12.41       5.55
Zn      17.25      11.66      10.19
Zn      17.17      13.20       7.35
Zn      15.40      10.62       7.81
Zn      18.54      10.34       7.57
C      14.25      13.08       6.97
C      16.70       9.05       5.83
O      17.09      14.59       8.76
O      16.71      13.48      10.71
O      19.88       9.99       8.94
O      19.12      11.25      10.69
O      15.03       9.31       9.22
O      16.08      10.29      10.99
O      19.43      11.24       6.04
O      18.54      13.33       5.98
O      14.01      12.02       7.64
O      15.39      13.42       6.51
O      15.63       9.71       6.07
O      17.64       8.84       6.67
O      17.12      11.48       8.25
C      16.65      14.51       9.95
C      20.02      10.58      10.07
C      15.40       9.36      10.45
