18

H       3.68      -4.84      30.78
H       0.37      -8.32      31.04
Al       2.03      -6.55      31.10
Al       5.32      -6.54      31.15
O       4.82      -7.81      32.48
O       2.52      -7.56      29.52
O       1.47      -5.11      29.94
O       2.58      -8.02      32.22
O       1.54      -5.54      32.64
O       4.76      -7.77      29.75
O       3.67      -5.73      31.17
O       5.88      -5.38      32.58
O       5.82      -5.23      29.83
O       0.37      -7.35      31.03
C       3.66      -7.98      29.15
C       3.69      -8.34      32.76
C       0.42      -5.15      33.10
C       0.34      -4.72      29.53
