23

Zn       9.23      15.63       0.77
Zn      10.92      18.36       0.58
Zn       7.72      18.42       0.62
Zn       9.24      17.30      -1.97
C      11.83      16.06       2.16
C       9.31      20.49       1.93
C       6.72      16.08       2.17
C       6.72      18.79      -2.15
C       9.26      14.36      -1.92
C      11.83      18.78      -2.17
O       9.30      17.43      -0.01
O      10.83      15.33       1.86
O      10.43      19.97       1.60
O       6.61      17.28       1.77
O      12.04      17.26       1.77
O       7.67      15.26       1.88
O       8.15      20.04       1.64
O       6.62      18.96      -0.90
O       9.25      15.44      -2.62
O       7.67      18.18      -2.77
O       9.26      14.27      -0.65
O      12.04      18.96      -0.92
O      10.84      18.18      -2.69
