23

Zn      26.10       8.48      16.25
Zn      27.78       7.43      13.75
Zn      27.87       5.74      16.41
Zn      29.35       8.61      16.23
C      25.21       8.90      13.49
C      27.82       4.48      13.75
C      25.25       6.15      17.82
C      30.38       6.28      17.80
O      27.76       7.58      15.70
O      24.97       9.06      14.74
C      27.67      10.64      17.57
O      27.75       5.58      13.11
O      26.23       8.32      12.99
O      25.00       7.35      17.43
O      26.26       5.45      17.49
O      27.89       4.34      15.03
O      29.46       5.44      17.52
O      28.83      10.21      17.26
O      26.55      10.11      17.26
O      29.41       8.20      13.01
O      30.45       7.48      17.40
O      30.47       9.23      14.74
C      30.33       8.93      13.50
