14

Zn       1.20       6.17       0.06
Zn      -1.35       6.20      -0.06
O       0.95       7.66       1.41
O      -1.09       4.70      -1.41
C      -0.20       8.11       1.75
O       1.02       7.50      -1.45
O       1.10       4.82       1.55
C      -0.08       7.92      -1.93
C      -0.06       4.45       1.93
O       1.18       4.66      -1.30
C       0.06       4.26      -1.75
O      -1.33       7.70       1.30
O      -1.17       4.87       1.45
O      -1.25       7.55      -1.55
