18

Al       5.65      18.83      21.53
Al       2.31      18.76      21.53
O       2.84      19.99      22.91
O       5.10      20.11      20.20
O       6.17      17.62      20.14
O       5.11      20.07      22.89
O       6.18      17.58      22.87
H       4.02      17.03      21.59
O       2.83      19.99      20.14
H       7.37      20.57      21.51
O       3.99      17.99      21.52
C       3.96      20.43      19.74
O       8.45      17.52      22.90
C       3.97      20.41      23.34
O       8.44      17.51      20.17
C       7.30      17.18      23.34
O       7.33      19.60      21.53
C       7.29      17.20      19.71
