10

Al       0.02      15.10       2.91
C      -1.93      13.28       3.90
C      -1.93      16.87       3.98
C      -1.93      15.15       0.84
O      -1.01      15.80       1.44
O      -1.01      13.47       3.03
O      -1.01      16.02       4.25
O       1.07      14.44       1.43
O       1.07      16.70       3.07
O       1.07      14.15       4.21
