18

Zn       5.67       8.89       8.06
Zn       5.69       6.10       8.10
N       5.69       4.06       7.91
N       5.68      10.94       8.20
O       5.64       8.57      10.09
O       5.95       6.55       6.09
O       5.48       6.29      10.17
O       5.73       8.82       5.97
O       3.67       8.57       7.91
O       7.69       6.34       8.42
O       3.68       6.30       7.98
O       7.69       8.57       7.97
C       3.10       7.43       7.97
C       8.26       7.45       8.19
C       5.69      12.10       8.19
C       5.67       2.90       7.90
C       5.59       7.45      10.69
C       5.88       7.66       5.47
