36

Zn      -1.49      10.72       0.04
Zn      -4.10       6.94       0.16
Zn      -4.14       9.75      -1.71
Zn      -1.36       7.84       1.96
C      -5.95      10.66       0.35
C       1.62       8.37       1.16
C      -0.96      10.26       3.65
C      -5.68       7.79      -3.48
C      -6.23       8.65       1.25
C       1.52      10.55       0.70
C      -2.02      11.89       2.63
C      -5.38       5.92      -2.37
C      -3.47       6.93       4.06
C      -2.09       8.92      -3.66
C      -3.98      12.84      -2.45
C      -0.70       5.08       0.60
N      -2.45      12.14      -1.05
N       0.28      10.07       0.76
N      -2.30      10.73       1.97
N      -5.19       6.95      -1.53
N      -3.11       7.05       2.78
N      -2.40       8.96      -2.34
N      -3.47      11.74      -1.89
N      -1.40       6.20       0.74
N      -2.12       6.43      -0.41
N      -3.89       6.20       2.02
N      -1.35       9.58      -1.68
N      -4.81       9.94       0.16
N       0.33       8.71       1.04
N      -1.66       9.72       2.67
N      -5.37       8.14      -2.23
N      -5.00       8.69       0.74
C      -2.35      13.47      -1.13
C      -1.77       5.47      -1.29
C      -4.74       5.56       2.84
C      -0.43       9.92      -2.58
