9

O       7.77      11.99       9.63
Al       8.14      13.11      10.92
P      11.22      12.74      10.43
P       6.91      12.74      13.72
O       7.70      12.36      12.44
P       6.65      11.52       8.66
O       9.87      13.37      10.86
P       6.65      15.68       9.84
O       7.32      14.65      10.77
