14

Zn       3.90      17.04       0.96
Zn       2.41      18.12      -1.03
O       4.13      17.11      -1.75
O       3.31      19.83      -1.27
O       2.94      17.80       2.48
O       1.61      18.65       0.84
O       4.62      18.94       0.36
C       4.35      19.83      -0.50
C       5.13      16.47      -1.30
O       5.30      16.15      -0.06
C       1.48      15.69      -0.48
O       2.36      15.77       0.43
O       1.25      16.60      -1.37
C       1.94      18.47       2.05
