23

Zn       7.41       8.94      15.57
Zn       7.25      10.70      18.21
Zn       8.86      11.84      15.64
Zn       5.78      11.74      15.52
O       7.33      10.78      16.24
O       7.43       7.60      16.99
O       8.91      11.48      18.96
O      10.13      10.71      14.71
O       7.20       8.87      18.88
O       9.00       8.72      14.44
O       9.49      12.85      17.27
O       8.47      13.42      14.54
C       7.32       7.76      18.26
C       9.63      12.39      18.46
O       5.76       8.54      14.53
C       9.99       9.52      14.27
C       5.03       9.36      13.90
O       5.68      11.69      18.82
C       4.66      12.12      18.19
C       7.31      13.87      14.20
O       5.16      10.64      13.95
O       6.18      13.37      14.51
O       4.49      12.14      16.92
