23

Zn       3.92       7.91       8.79
Zn       5.15       5.01       9.35
O       2.60       8.29       7.39
Zn       3.24       6.41      11.54
Zn       2.01       5.31       8.79
O       4.68       3.38       8.37
O       1.25       6.46       7.39
O       0.60       4.99      10.10
O       2.48       3.61       7.95
C       6.62       7.11       7.88
C       5.55       4.72      12.26
C       3.58       9.34      11.36
C       0.55       5.21      11.36
C       1.61       7.61       6.97
C       3.58       2.98       7.88
O       3.58       6.16       9.62
O       5.69       7.98       7.95
O       5.91       4.45      11.07
O       3.36       8.30      12.05
O       6.57       5.94       8.37
O       3.80       9.36      10.10
O       4.57       5.44      12.61
O       1.48       5.73      12.05
