23

Zn       6.81       8.43      10.86
Zn       6.77      10.63       8.51
Zn       9.13       8.50       8.72
Zn       8.91      10.88      10.87
C       7.74      13.22       9.50
C       8.22       6.01      10.00
C       4.34       9.40       9.56
C      11.49       9.82       9.95
C       8.03       9.44       6.14
C       7.66       9.82      13.33
O       7.90       9.63       9.76
O       8.39      12.73      10.49
O       7.40       6.57      10.81
O       4.86      10.38       8.94
O      10.99       8.98       9.14
O       7.02      10.03       6.65
O       8.54      10.56      12.79
O       8.96       8.85       6.80
O       6.89       8.98      12.76
O       4.95       8.51      10.25
O      10.86      10.68      10.66
O       7.18      12.55       8.57
O       8.88       6.60       9.07
