64

Cu      14.79      16.93       6.60
Cu      16.37       9.31       5.29
Cu      16.88      21.48       0.50
Cu      18.47      13.86      10.76
Cu      12.51      23.23       0.82
Cu      14.10      15.61      11.08
Cu      17.29      12.94       6.28
Cu      16.19      20.16       4.97
C      15.13      23.63       0.38
C      15.94      19.68       2.25
C      12.10      17.83      11.09
C      14.54      12.89      11.52
C      14.54      12.89       5.84
C      12.69      11.83      12.06
C      13.83      10.88       5.30
C      16.47      20.48       7.93
C      15.37      18.49       2.89
C      16.44      24.19       5.73
C      19.96      14.95       8.68
C      14.86      14.28       6.17
C      16.11      22.80       5.40
C      15.04      17.41       9.32
C      14.51      16.61       3.64
C      14.77       8.06       3.54
C      21.66      16.14       9.42
C      18.20      13.52      13.72
C      13.70       7.30       2.90
C      15.85      13.46      11.19
C      15.60      18.60       8.68
C      18.89      14.19       8.04
C      10.24      16.78      11.63
C      19.83      11.37       6.27
N      20.98      15.64      10.49
N      13.53      13.79      11.54
N      18.06      10.19       5.75
N      14.88      17.36       4.71
N      19.91      14.76      13.11
N      12.39      16.52      11.28
N      15.41      18.51       4.25
N      16.09      19.72       6.87
N      18.88      14.03      12.65
N      18.49      11.42       6.08
N      19.95      14.91      10.03
N      12.39      13.15      11.87
N      15.56      18.58       7.33
N      15.60      12.06       5.82
N      15.17      10.83       5.49
N      11.26      15.88      11.61
O      15.98      19.78       0.98
O      14.56      16.50       8.54
O      18.80      14.13       6.77
O      15.00      17.31      10.59
O      14.87      22.54       5.19
O      16.41      20.59       3.03
O      18.08      13.56       8.82
O      17.02      21.91       5.37
O      15.08      22.36       0.60
O      15.58       8.69       2.75
O      15.89      14.73      10.97
O      16.10      14.55       6.39
O      16.89      12.72      11.16
O      14.09      24.36       0.41
O      14.86       8.12       4.81
O      13.95      15.17       6.20
