23

Zn      10.56       4.32       3.07
Zn       8.96       5.25       5.72
Zn       8.95       7.11       3.08
Zn       7.39       4.34       3.07
O      10.56       7.50       2.03
O       6.23       3.81       4.55
O      11.58       5.46       1.85
O      10.56       4.34       6.44
O       7.30       7.53       2.09
O       8.98       5.26       3.76
O       8.87       7.08       6.45
O       7.82       2.79       1.95
O       8.99       8.39       4.57
O      10.09       2.64       2.17
O      11.74       3.79       4.56
O       6.33       5.47       1.88
O       7.45       4.19       6.44
C       6.43       3.75       5.81
C      11.49       6.71       1.63
C      11.54       3.81       5.82
C       6.40       6.73       1.66
C       8.93       8.21       5.83
C       8.96       2.25       1.73
