15

Cu       5.37      19.39       3.21
Cu       3.10      19.40       5.44
Cu       5.37      21.65       5.44
N       3.08      18.09       4.14
N       4.07      18.08       3.18
N       6.67      20.69       3.17
N       6.67      21.68       4.14
N       4.07      21.67       6.76
N       3.09      20.70       6.76
C       3.84      17.06       2.34
C       2.23      17.08       3.89
C       7.68      22.53       3.88
C       7.69      20.94       2.33
C       2.25      20.94       7.78
C       3.84      22.50       7.78
