12

Cu       2.27       3.07       6.44
Cu       1.65       5.52       4.35
S       1.16       2.75       8.37
S       2.76       5.84       2.42
S       4.14       1.86       6.59
S      -0.22       6.74       4.20
I       0.84       2.92       4.21
I       3.08       5.68       6.58
C      -0.26       3.66       8.42
C       4.18       4.93       2.37
C       4.49       0.80       5.32
C      -0.56       7.79       5.47
