54

Zr      16.01      16.17       6.74
Zr      12.49      12.62       6.75
Zr      14.25      14.39       4.24
Zr      14.25      14.39       9.25
Zr      12.47      16.15       6.74
Zr      16.03      12.63       6.74
H      14.25      17.17       4.77
H      11.47      14.37       8.72
H      14.26      11.60       4.77
H      17.04      14.41       8.71
O      15.37      18.29       6.81
O      10.36      13.24       6.68
O      13.13      10.49       6.80
O      18.14      15.55       6.69
O      15.65      15.72       3.18
O      15.58      15.81      10.32
O      12.93      12.98      10.30
O      12.84      13.05       3.17
O      11.66      16.86       4.80
O      16.83      11.92       4.80
O      16.75      11.84       8.69
O      11.76      16.95       8.69
O      15.70      13.03       3.17
O      15.63      12.96      10.31
O      12.88      15.83      10.31
O      12.80      15.75       3.17
O      16.79      16.86       4.78
O      11.70      11.90       4.77
O      11.80      11.83       8.71
O      16.72      16.96       8.72
O      18.17      13.27       6.69
O      13.10      18.30       6.80
O      10.33      15.51       6.69
O      15.40      10.49       6.80
O      16.25      14.40       8.16
O      14.26      12.40       5.33
O      12.26      14.39       8.15
O      14.23      16.39       5.33
O      12.78      14.39       5.70
O      14.24      15.86       7.78
C      14.23      18.87       6.81
O      15.71      14.40       5.71
O      14.26      12.93       7.78
C      18.73      14.41       6.68
C      16.52      16.58       3.56
C      16.43      16.68       9.93
C       9.77      14.37       6.68
C      11.98      12.19       3.56
C      11.93      16.58       3.58
C      16.55      12.18       3.58
C      14.27       9.91       6.81
C      12.08      12.10       9.92
C      16.48      12.11       9.90
C      12.04      16.69       9.91
