23

Zn       1.84       6.18       7.02
Zn      -1.38       6.25       6.95
Zn       0.21       5.32       9.63
Zn       0.16       3.48       7.00
C      -2.50       3.83       5.74
C       2.94       6.38       9.75
C       0.32       8.33       5.77
C      -0.17       2.41       9.77
C      -2.22       7.02       9.67
C       2.64       3.80       5.50
O       0.20       5.32       7.67
O      -1.45       3.12       5.93
O       1.41       7.97       6.32
O       3.10       6.42       8.49
O      -0.78       7.68       5.74
O      -0.05       3.51      10.40
O      -2.41       7.06       8.41
O       1.76       3.01       5.98
O      -1.25       6.46      10.28
O       2.64       5.07       5.61
O      -0.09       2.25       8.51
O      -2.63       5.07       5.99
O       1.89       6.01      10.38
