17

Ni       7.48       2.93       5.00
C       6.37       3.59       2.31
O       8.44       1.79       6.56
N       6.61       4.06       3.56
H       9.76       3.57       4.38
O       6.99       0.98       4.08
O       8.09       4.61       6.10
H       9.62       1.98       4.17
H       6.31       0.46       4.59
C       9.31       5.00       6.19
C       6.24       5.33       3.84
H       7.85       0.54       4.27
C       5.88       3.21       7.45
N       5.79       2.93       6.13
C       9.29       0.86       6.36
C       4.57       2.73       5.60
O       9.28       2.85       3.83
