23

Zn       9.96       7.62       6.86
Zn       7.80      10.01       6.84
Zn      10.20      10.00       9.01
Zn       7.82       7.86       9.24
C       5.34       9.07       8.15
C      12.55       8.68       7.80
C       8.75       8.69       4.38
C       9.13       9.06      11.59
C       9.13      12.47       7.78
C       8.75       5.27       8.17
O       8.94       8.88       7.98
O       8.24      11.92       7.05
O       8.01       5.92       8.99
O       9.94      11.91       8.58
O       9.54       5.75       7.29
O       9.54       7.87       4.95
O       8.25       8.27      11.11
O       5.89       9.81       7.27
O      12.07       9.56       8.59
O       5.91       8.28       8.98
O      11.89       7.86       7.07
O       8.01       9.57       4.94
O       9.95       9.80      10.94
