37

Cu       5.77       2.88       9.60
Cu       6.73      -2.88       6.11
N       5.53      -3.52       4.63
Cu       6.25      -0.00       7.86
C       3.82       5.15       9.82
C       3.74       3.62      11.57
C       7.33       4.82      11.19
C       7.48       2.63      11.96
C       8.68      -5.15       5.89
C       8.77      -3.62       4.14
C       5.17      -4.82       4.52
C       5.03      -2.63       3.76
N       4.34       0.44      11.45
N       5.14       0.84      10.47
N       5.29      -0.17       9.60
N       4.59      -1.22       9.98
N       8.42      -1.32       9.49
N       7.62      -1.37       8.45
N       7.74      -2.55       7.83
N       8.62      -3.30       8.47
N       7.30       1.91       8.76
N       8.47       2.22       8.83
N       9.60       2.49       8.87
N       4.25       3.99      10.38
N       6.97       3.52      11.08
N       8.17      -0.44       4.26
N       7.37      -0.84       5.24
N       7.22       0.17       6.11
N       7.92       1.22       5.73
N       4.08       1.32       6.22
N       4.89       1.37       7.26
N       4.77       2.55       7.88
N       3.88       3.30       7.24
N       5.20      -1.91       6.95
N       4.04      -2.22       6.88
N       2.90      -2.49       6.84
N       8.26      -3.99       5.33
