28

Cd       9.05      11.91       7.98
O       7.85      10.25       6.70
Cd      13.40      11.15       7.29
O       6.63      11.79       7.79
H      12.83      13.25       9.34
O       9.01      13.71       9.31
H      14.33      12.67       9.48
C       6.73      10.72       7.08
O      15.17      10.34       6.16
C      10.16      14.09       9.74
C      16.12      10.53       7.01
O      10.98      10.92       7.18
C      11.01      10.00       6.27
O      12.08       9.57       5.79
O      13.68      13.03       8.86
C       8.88      10.57      11.00
C       9.20       8.98       9.35
C      13.35      12.65       4.53
H      10.04       9.61       5.92
C      12.57      14.11       6.15
C       9.01      14.67       6.20
C       9.38      12.83       4.85
C      12.49      10.21      10.25
C      13.50       8.47       9.10
N       9.06      10.27       9.70
N      13.04      12.90       5.81
N       9.24      13.35       6.08
N      13.08       9.75       9.13
