20

Zn       5.39       6.48       9.83
O       2.81       6.43       7.99
Zn       2.55       6.66      10.05
O       2.88       6.80      12.08
O       5.23       8.52       9.76
O       2.77       4.59      10.19
O       2.97       8.65       9.90
O       5.00       4.47       9.77
C       3.88       6.37       7.31
C       4.05       6.69      12.56
C      -0.13       6.26       8.87
C       4.13       9.17       9.85
C      -0.21       6.91      11.10
C       3.85       3.96       9.96
C       8.14       6.61       8.70
C       8.09       6.20      10.99
N       0.51       6.62      10.00
N       7.43       6.39       9.83
O       5.11       6.50      11.88
O       5.07       6.47       7.75
