18

Mg      -0.09      -1.04      18.89
Mg      -2.40       0.59      19.65
Mg       2.22       0.44      17.86
C      -0.43      -0.20      21.81
C      -0.42       1.65      17.48
C       1.88      -2.52      17.12
O       3.10       0.70      21.08
O       1.49       0.01      19.69
O      -0.99      -0.51      20.63
O      -1.53      -2.33      18.27
O       0.79       1.62      17.05
O      -0.82       0.76      18.34
O       3.64       1.84      18.32
C       1.90       0.31      20.88
C       4.19       2.71      17.46
C      -2.73      -1.97      18.02
O       3.80      -0.78      18.36
O       1.32      -1.34      17.44
