23

Zn      10.43       6.21       7.10
Zn       7.18       6.29       7.02
Zn       8.80       5.38       9.60
Zn       8.87       3.48       7.05
C       8.94       8.36       5.73
C      11.38       3.88       5.53
C      11.47       6.56       9.85
C       6.25       3.82       5.67
C       6.27       6.96       9.75
C       8.73       2.43       9.80
O       7.79       7.89       6.04
O      10.06       7.88       6.16
O      10.37       3.15       5.83
O      11.52       5.11       5.90
O      10.36       6.24      10.41
O      11.71       6.42       8.59
O       7.14       3.06       6.21
O       6.19       5.10       5.81
O       7.37       6.54      10.28
O       6.00       6.87       8.50
O       8.50       3.59      10.32
O       9.04       2.24       8.57
O       8.78       5.34       7.66
